
Build Time: Nov 20 2020 15:49:41 EST 
Executable Path: C:/PROGRA~1/ANSYSI~1/ANSYSS~1/v211/fluent/ntbin/win64/fluent.exe

---------------------------------------------------------------------------------
ID    Hostname         Core  O.S.         PID    Vendor                          
---------------------------------------------------------------------------------
n1    DESKTOP-SJVCFLH  2/8  Windows-x64  16216  Intel(R) Core(TM) i7-8550U      
n0*   DESKTOP-SJVCFLH  1/8  Windows-x64  12280  Intel(R) Core(TM) i7-8550U      
host  DESKTOP-SJVCFLH       Windows-x64  21956  Intel(R) Core(TM) i7-8550U      

MPI Option Selected: intel
Selected system interconnect: default
---------------------------------------------------------------------------------
Fast-loading "C:\PROGRA~1\ANSYSI~1\ANSYSS~1\v211\fluent\fluent21.1.0\\addons\afd\lib\hdfio.bin"
Done.

Reading from DESKTOP-SJVCFLH:"C:\Users\samlo\OneDrive\Documents\n1-nozzle_files\dp0\FFF\Fluent\FFF-Setup-Output.cas.h5" in NODE0 mode ...
  Reading mesh ...
        2410 cells,     1 cell zone  ...
           2410 quadrilateral cells,  zone id: 2
        4996 faces,     7 face zones ...
           4644 2D interior faces,  zone id: 1
            111 2D wall faces,  zone id: 18
              8 2D pressure-inlet faces,  zone id: 6
             27 2D pressure-outlet faces,  zone id: 7
            103 2D axis faces,  zone id: 8
            100 2D wall faces,  zone id: 9
              3 2D wall faces,  zone id: 5
        2587 nodes,     1 node zone  ...
  Done.



Building...
     mesh
	distributing mesh
		parts..,
		faces..,
		nodes..,
		cells..,
        bandwidth reduction using Reverse Cuthill-McKee: 994/28 = 35.5
     materials,
     interface,
     domains,
	mixture
     zones,
	wall-n1-nozzle
	nozzlewall
	poutlet
	wall
	interior-n1-nozzle
	pinlet
	symmetry
	n1-nozzleSetting n1-nozzle (mixture) ... Done.
 Setting zone id of n1-nozzle to 2.
 Setting zone id of symmetry to 8.
 Setting zone id of pinlet to 6.
 Setting zone id of interior-n1-nozzle to 1.
 Setting zone id of wall to 18.
 Setting zone id of poutlet to 7.
 Setting zone id of nozzlewall to 9.
 Setting zone id of wall-n1-nozzle to 5.
Done.
Setting n1-nozzle (mixture) ... Done.
Setting symmetry (mixture) ... Done.
Setting pinlet (mixture) ... Done.
Setting interior-n1-nozzle (mixture) ... Done.
Setting wall (mixture) ... Done.
Setting poutlet (mixture) ... Done.
Setting nozzlewall (mixture) ... Done.
Setting wall-n1-nozzle (mixture) ... Done.

     parallel,
Done.

Preparing mesh for display...
Done.

Reading from DESKTOP-SJVCFLH:"C:\Users\samlo\OneDrive\Documents\n1-nozzle_files\dp0\FFF\Fluent\FFF-1-04500.dat.h5" in NODE0 mode ...


  Reading results.
Parallel variables...
Done.

  iter  continuity  x-velocity  y-velocity      energy           k     epsilon     time/iter
  4500  2.9568e-04  1.4174e-04  4.2066e-03  1.6189e-04  4.6253e-05  6.5882e-05  0:00:00 4500

 Reversed flow on 7 faces (45.1% area) of pressure-outlet 7.
  4501  2.8977e-04  1.2239e-04  4.2412e-03  1.5737e-04  4.4490e-05  6.3044e-05  0:00:00 4499

 Reversed flow on 7 faces (45.1% area) of pressure-outlet 7.
  4502  2.8397e-04  1.1190e-04  4.3467e-03  1.5415e-04  4.3285e-05  6.1522e-05  0:00:00 4498

 Reversed flow on 7 faces (45.1% area) of pressure-outlet 7.
  4503  2.7760e-04  1.1383e-04  4.4693e-03  1.5103e-04  4.2755e-05  6.1771e-05  0:00:00 4497

 Reversed flow on 7 faces (45.1% area) of pressure-outlet 7.
  4504  2.7019e-04  1.2681e-04  4.6366e-03  1.4802e-04  4.2885e-05  6.3349e-05  0:00:00 4496

 Reversed flow on 7 faces (45.1% area) of pressure-outlet 7.
  4505  2.6279e-04  1.4853e-04  4.8413e-03  1.4601e-04  4.3319e-05  6.6100e-05  0:00:00 4495

 Reversed flow on 7 faces (45.1% area) of pressure-outlet 7.
  4506  2.5591e-04  1.7572e-04  5.0764e-03  1.4541e-04  4.4188e-05  6.9764e-05  0:00:00 4494

 Reversed flow on 7 faces (45.1% area) of pressure-outlet 7.
  4507  2.4984e-04  2.0569e-04  5.3339e-03  1.4547e-04  4.5489e-05  7.3933e-05  0:00:00 4493

 Reversed flow on 7 faces (45.1% area) of pressure-outlet 7.
  4508  2.4468e-04  2.3693e-04  5.6155e-03  1.4629e-04  4.7114e-05  7.8413e-05  0:00:00 4492

 Reversed flow on 7 faces (45.1% area) of pressure-outlet 7.
  4509  2.4066e-04  2.6874e-04  5.9078e-03  1.4951e-04  4.8984e-05  8.2683e-05  0:00:00 4491

 Reversed flow on 7 faces (45.1% area) of pressure-outlet 7.
  4510  2.3854e-04  2.9951e-04  6.1980e-03  1.5389e-04  5.0932e-05  8.6576e-05  1:14:50 4490

 Reversed flow on 7 faces (45.1% area) of pressure-outlet 7.

  iter  continuity  x-velocity  y-velocity      energy           k     epsilon     time/iter
  4511  2.3848e-04  3.2850e-04  6.4721e-03  1.5884e-04  5.2721e-05  8.9919e-05  0:59:51 4489

 Reversed flow on 7 faces (45.1% area) of pressure-outlet 7.
  4512  2.4049e-04  3.5517e-04  6.7202e-03  1.6428e-04  5.4291e-05  9.2657e-05  0:47:52 4488

 Reversed flow on 7 faces (45.1% area) of pressure-outlet 7.
  4513  2.4452e-04  3.7903e-04  6.9304e-03  1.7036e-04  5.5520e-05  9.4735e-05  0:38:17 4487

 Reversed flow on 7 faces (45.1% area) of pressure-outlet 7.
  4514  2.5054e-04  3.9955e-04  7.0894e-03  1.7684e-04  5.6426e-05  9.6451e-05  0:30:37 4486

 Reversed flow on 7 faces (45.1% area) of pressure-outlet 7.
  4515  2.5870e-04  4.1609e-04  7.2007e-03  1.8327e-04  5.6837e-05  9.7270e-05  0:24:30 4485

 Reversed flow on 7 faces (45.1% area) of pressure-outlet 7.
  4516  2.6918e-04  4.2705e-04  7.2635e-03  1.8951e-04  5.6821e-05  9.7271e-05  0:19:35 4484

 Reversed flow on 7 faces (45.1% area) of pressure-outlet 7.
  4517  2.8106e-04  4.3254e-04  7.2482e-03  1.9508e-04  5.6534e-05  9.6506e-05  0:15:40 4483

 Reversed flow on 7 faces (45.1% area) of pressure-outlet 7.
  4518  2.9374e-04  4.3188e-04  7.1608e-03  1.9984e-04  5.5863e-05  9.4978e-05  0:12:32 4482

 Reversed flow on 7 faces (45.1% area) of pressure-outlet 7.
  4519  3.0659e-04  4.2473e-04  6.9770e-03  2.0357e-04  5.4856e-05  9.2854e-05  0:10:01 4481

 Reversed flow on 7 faces (45.1% area) of pressure-outlet 7.
  4520  3.1954e-04  4.1145e-04  6.7776e-03  2.0673e-04  5.3556e-05  9.0009e-05  0:08:01 4480

 Reversed flow on 7 faces (45.1% area) of pressure-outlet 7.
  4521  3.3210e-04  3.9237e-04  6.5896e-03  2.0942e-04  5.2030e-05  8.6548e-05  0:06:25 4479

 Reversed flow on 7 faces (45.1% area) of pressure-outlet 7.

  iter  continuity  x-velocity  y-velocity      energy           k     epsilon     time/iter
  4522  3.4426e-04  3.6797e-04  6.4048e-03  2.1056e-04  5.0277e-05  8.2573e-05  0:05:08 4478

 Reversed flow on 7 faces (45.1% area) of pressure-outlet 7.
  4523  3.4846e-04  2.9947e-04  6.2455e-03  1.9875e-04  4.8434e-05  7.8060e-05  0:04:06 4477

 Reversed flow on 7 faces (45.1% area) of pressure-outlet 7.
  4524  3.7520e-04  2.6183e-04  6.0460e-03  2.1025e-04  4.6490e-05  7.3102e-05  0:03:17 4476

 Reversed flow on 7 faces (45.1% area) of pressure-outlet 7.
  4525  3.9003e-04  2.2668e-04  5.8567e-03  2.1647e-04  4.4455e-05  6.7881e-05  0:02:37 4475

 Reversed flow on 7 faces (45.1% area) of pressure-outlet 7.
  4526  3.9565e-04  1.9202e-04  5.6827e-03  2.1761e-04  4.2450e-05  6.2573e-05  0:02:06 4474

 Reversed flow on 7 faces (45.1% area) of pressure-outlet 7.
  4527  3.9424e-04  1.6145e-04  5.4998e-03  2.1507e-04  4.0417e-05  5.7530e-05  0:01:41 4473

 Reversed flow on 7 faces (45.1% area) of pressure-outlet 7.
  4528  3.8710e-04  1.3804e-04  5.4690e-03  2.0960e-04  3.8400e-05  5.2689e-05  0:16:15 4472

 Reversed flow on 7 faces (45.1% area) of pressure-outlet 7.
  4529  3.7545e-04  1.2698e-04  5.5574e-03  2.0199e-04  3.6556e-05  4.8514e-05  0:13:00 4471

 Reversed flow on 7 faces (45.1% area) of pressure-outlet 7.
  4530  3.6077e-04  1.3124e-04  5.7295e-03  1.9335e-04  3.5222e-05  4.5660e-05  0:10:24 4470

 Reversed flow on 7 faces (45.1% area) of pressure-outlet 7.
  4531  3.4395e-04  1.4786e-04  5.9334e-03  1.8423e-04  3.4551e-05  4.4798e-05  0:08:19 4469

 Reversed flow on 7 faces (45.1% area) of pressure-outlet 7.
  4532  3.2579e-04  1.7123e-04  6.1343e-03  1.7495e-04  3.4409e-05  4.5456e-05  0:06:39 4468

 Reversed flow on 7 faces (45.1% area) of pressure-outlet 7.

  iter  continuity  x-velocity  y-velocity      energy           k     epsilon     time/iter
  4533  3.0730e-04  1.9736e-04  6.3212e-03  1.6614e-04  3.4712e-05  4.7810e-05  0:05:19 4467

 Reversed flow on 7 faces (45.1% area) of pressure-outlet 7.
  4534  2.8962e-04  2.2335e-04  6.4790e-03  1.5860e-04  3.5664e-05  5.1290e-05  0:04:15 4466

 Reversed flow on 7 faces (45.1% area) of pressure-outlet 7.
  4535  2.7399e-04  2.4724e-04  6.6031e-03  1.5319e-04  3.7108e-05  5.5012e-05  0:03:24 4465

 Reversed flow on 7 faces (45.1% area) of pressure-outlet 7.
  4536  2.6165e-04  2.6953e-04  6.6997e-03  1.5034e-04  3.8588e-05  5.8872e-05  0:02:43 4464

 Reversed flow on 7 faces (45.1% area) of pressure-outlet 7.
  4537  2.5431e-04  2.8811e-04  6.7958e-03  1.5011e-04  4.0013e-05  6.2944e-05  0:02:11 4463

 Reversed flow on 7 faces (45.1% area) of pressure-outlet 7.
  4538  2.5224e-04  3.0286e-04  6.8801e-03  1.5195e-04  4.1506e-05  6.7054e-05  0:01:44 4462

 Reversed flow on 7 faces (45.1% area) of pressure-outlet 7.
  4539  2.6554e-04  3.1662e-04  6.9112e-03  1.6564e-04  4.3066e-05  7.0988e-05  0:01:24 4461

 Reversed flow on 7 faces (45.1% area) of pressure-outlet 7.
  4540  3.0303e-04  3.5445e-04  6.9125e-03  1.9764e-04  4.4533e-05  7.4758e-05  0:01:07 4460

 Reversed flow on 7 faces (45.1% area) of pressure-outlet 7.
  4541  3.0926e-04  3.7091e-04  6.9100e-03  2.0322e-04  4.5927e-05  7.8359e-05  0:00:53 4459

 Reversed flow on 7 faces (45.1% area) of pressure-outlet 7.
  4542  3.0653e-04  3.7489e-04  6.8325e-03  2.0098e-04  4.7314e-05  8.1729e-05  0:00:43 4458

 Reversed flow on 7 faces (45.1% area) of pressure-outlet 7.
  4543  3.0500e-04  3.7440e-04  6.7067e-03  1.9877e-04  4.8604e-05  8.4912e-05  0:00:34 4457

 Reversed flow on 7 faces (45.1% area) of pressure-outlet 7.

  iter  continuity  x-velocity  y-velocity      energy           k     epsilon     time/iter
  4544  3.0606e-04  3.7183e-04  6.5655e-03  1.9666e-04  4.9838e-05  8.7881e-05  0:00:27 4456

 Reversed flow on 7 faces (45.1% area) of pressure-outlet 7.
  4545  3.0854e-04  3.6786e-04  6.4103e-03  1.9717e-04  5.1146e-05  9.0529e-05  0:00:22 4455

 Reversed flow on 7 faces (45.1% area) of pressure-outlet 7.
  4546  3.1183e-04  3.6174e-04  6.2354e-03  1.9791e-04  5.2389e-05  9.2709e-05  0:15:08 4454

 Reversed flow on 7 faces (45.1% area) of pressure-outlet 7.
  4547  3.1501e-04  3.5276e-04  6.0318e-03  1.9788e-04  5.3494e-05  9.4280e-05  0:12:06 4453

 Reversed flow on 7 faces (45.1% area) of pressure-outlet 7.
  4548  3.1767e-04  3.4074e-04  5.7934e-03  1.9677e-04  5.4410e-05  9.5179e-05  0:09:41 4452

 Reversed flow on 7 faces (45.1% area) of pressure-outlet 7.
  4549  3.1927e-04  3.2566e-04  5.5330e-03  1.9476e-04  5.5046e-05  9.5062e-05  0:07:45 4451

 Reversed flow on 7 faces (45.1% area) of pressure-outlet 7.
  4550  3.1959e-04  3.0745e-04  5.2677e-03  1.9205e-04  5.5283e-05  9.4021e-05  0:06:12 4450

 Reversed flow on 7 faces (45.1% area) of pressure-outlet 7.
  4551  3.1848e-04  2.8658e-04  5.0082e-03  1.8864e-04  5.5121e-05  9.1870e-05  0:04:57 4449

 Reversed flow on 7 faces (45.1% area) of pressure-outlet 7.
  4552  3.1631e-04  2.6353e-04  4.7665e-03  1.8462e-04  5.4423e-05  8.8566e-05  0:03:58 4448

 Reversed flow on 7 faces (45.1% area) of pressure-outlet 7.
  4553  3.1324e-04  2.3872e-04  4.5555e-03  1.8020e-04  5.3292e-05  8.4276e-05  0:03:10 4447

 Reversed flow on 7 faces (45.1% area) of pressure-outlet 7.
  4554  3.0934e-04  2.1261e-04  4.3877e-03  1.7556e-04  5.1826e-05  7.9435e-05  0:02:32 4446

 Reversed flow on 7 faces (45.1% area) of pressure-outlet 7.

  iter  continuity  x-velocity  y-velocity      energy           k     epsilon     time/iter
  4555  3.0478e-04  1.8593e-04  4.2723e-03  1.7073e-04  5.0017e-05  7.4180e-05  0:02:02 4445

 Reversed flow on 7 faces (45.1% area) of pressure-outlet 7.
  4556  2.9977e-04  1.5983e-04  4.2138e-03  1.6557e-04  4.7893e-05  6.9090e-05  0:01:37 4444

 Reversed flow on 7 faces (45.1% area) of pressure-outlet 7.
  4557  2.9427e-04  1.3646e-04  4.2093e-03  1.6072e-04  4.5860e-05  6.5065e-05  0:01:18 4443

 Reversed flow on 7 faces (45.1% area) of pressure-outlet 7.
  4558  2.8821e-04  1.1882e-04  4.2564e-03  1.5632e-04  4.4183e-05  6.2640e-05  0:15:51 4442

 Reversed flow on 7 faces (45.1% area) of pressure-outlet 7.
  4559  2.8167e-04  1.1080e-04  4.3543e-03  1.5237e-04  4.3181e-05  6.1578e-05  0:12:40 4441

 Reversed flow on 7 faces (45.1% area) of pressure-outlet 7.
  4560  2.7473e-04  1.1510e-04  4.4987e-03  1.4915e-04  4.2799e-05  6.2235e-05  0:10:08 4440

 Reversed flow on 7 faces (45.1% area) of pressure-outlet 7.
  4561  2.6767e-04  1.3085e-04  4.6809e-03  1.4677e-04  4.2998e-05  6.4034e-05  0:08:06 4439

 Reversed flow on 7 faces (45.1% area) of pressure-outlet 7.
  4562  2.6074e-04  1.5456e-04  4.8958e-03  1.4554e-04  4.3558e-05  6.7074e-05  0:06:29 4438

 Reversed flow on 7 faces (45.1% area) of pressure-outlet 7.
  4563  2.5423e-04  1.8281e-04  5.1359e-03  1.4535e-04  4.4546e-05  7.0805e-05  0:05:11 4437

 Reversed flow on 7 faces (45.1% area) of pressure-outlet 7.
  4564  2.4844e-04  2.1320e-04  5.3991e-03  1.4549e-04  4.5886e-05  7.5097e-05  0:04:09 4436

 Reversed flow on 7 faces (45.1% area) of pressure-outlet 7.
  4565  2.4350e-04  2.4471e-04  5.6844e-03  1.4694e-04  4.7596e-05  7.9519e-05  0:03:19 4435

 Reversed flow on 7 faces (45.1% area) of pressure-outlet 7.

  iter  continuity  x-velocity  y-velocity      energy           k     epsilon     time/iter
  4566  2.3992e-04  2.7631e-04  5.9772e-03  1.5037e-04  4.9479e-05  8.3716e-05  0:02:39 4434

 Reversed flow on 7 faces (45.1% area) of pressure-outlet 7.
  4567  2.3827e-04  3.0672e-04  6.2645e-03  1.5499e-04  5.1404e-05  8.7466e-05  0:02:07 4433

 Reversed flow on 7 faces (45.1% area) of pressure-outlet 7.
  4568  2.3873e-04  3.3521e-04  6.5348e-03  1.6007e-04  5.3169e-05  9.0640e-05  0:01:42 4432

 Reversed flow on 7 faces (45.1% area) of pressure-outlet 7.
  4569  2.4130e-04  3.6126e-04  6.7757e-03  1.6568e-04  5.4662e-05  9.3262e-05  0:01:21 4431

 Reversed flow on 7 faces (45.1% area) of pressure-outlet 7.
  4570  2.4584e-04  3.8438e-04  6.9744e-03  1.7188e-04  5.5824e-05  9.5241e-05  0:01:05 4430

 Reversed flow on 7 faces (45.1% area) of pressure-outlet 7.
  4571  2.5237e-04  4.0400e-04  7.1215e-03  1.7842e-04  5.6554e-05  9.6744e-05  0:00:52 4429

 Reversed flow on 7 faces (45.1% area) of pressure-outlet 7.
  4572  2.6104e-04  4.1949e-04  7.2214e-03  1.8483e-04  5.6873e-05  9.7357e-05  0:00:42 4428

 Reversed flow on 7 faces (45.1% area) of pressure-outlet 7.
  4573  2.7203e-04  4.2895e-04  7.2714e-03  1.9096e-04  5.6783e-05  9.7169e-05  0:00:33 4427

 Reversed flow on 7 faces (45.1% area) of pressure-outlet 7.
  4574  2.8413e-04  4.3312e-04  7.2356e-03  1.9639e-04  5.6407e-05  9.6190e-05  0:00:27 4426

 Reversed flow on 7 faces (45.1% area) of pressure-outlet 7.
  4575  2.9696e-04  4.3086e-04  7.1318e-03  2.0088e-04  5.5673e-05  9.4532e-05  0:00:21 4425

 Reversed flow on 7 faces (45.1% area) of pressure-outlet 7.
  4576  3.0985e-04  4.2213e-04  6.9280e-03  2.0439e-04  5.4613e-05  9.2250e-05  0:00:17 4424

 Reversed flow on 7 faces (45.1% area) of pressure-outlet 7.

  iter  continuity  x-velocity  y-velocity      energy           k     epsilon     time/iter
  4577  3.2273e-04  4.0741e-04  6.7325e-03  2.0752e-04  5.3253e-05  8.9262e-05  0:14:58 4423

 Reversed flow on 7 faces (45.1% area) of pressure-outlet 7.
  4578  3.3526e-04  3.8698e-04  6.5457e-03  2.0986e-04  5.1667e-05  8.5672e-05  0:11:58 4422

 Reversed flow on 7 faces (45.1% area) of pressure-outlet 7.
  4579  3.4713e-04  3.6129e-04  6.3624e-03  2.1078e-04  4.9897e-05  8.1560e-05  0:09:35 4421

 Reversed flow on 7 faces (45.1% area) of pressure-outlet 7.
  4580  3.5630e-04  2.8854e-04  6.2092e-03  2.0164e-04  4.8026e-05  7.6923e-05  0:07:40 4420

 Reversed flow on 7 faces (45.1% area) of pressure-outlet 7.
  4581  3.8101e-04  2.5427e-04  5.9990e-03  2.1312e-04  4.6071e-05  7.1898e-05  0:06:08 4419

 Reversed flow on 7 faces (45.1% area) of pressure-outlet 7.
  4582  3.9274e-04  2.1827e-04  5.8211e-03  2.1753e-04  4.4028e-05  6.6601e-05  0:04:54 4418

 Reversed flow on 7 faces (45.1% area) of pressure-outlet 7.
  4583  3.9636e-04  1.8427e-04  5.6451e-03  2.1755e-04  4.2025e-05  6.1362e-05  0:03:55 4417

 Reversed flow on 7 faces (45.1% area) of pressure-outlet 7.
  4584  3.9335e-04  1.5503e-04  5.4852e-03  2.1417e-04  3.9983e-05  5.6371e-05  0:03:08 4416

 Reversed flow on 7 faces (45.1% area) of pressure-outlet 7.
  4585  3.8486e-04  1.3409e-04  5.4821e-03  2.0799e-04  3.7982e-05  5.1540e-05  0:02:30 4415

 Reversed flow on 7 faces (45.1% area) of pressure-outlet 7.
  4586  3.7232e-04  1.2671e-04  5.5924e-03  2.0003e-04  3.6206e-05  4.7679e-05  0:02:00 4414

 Reversed flow on 7 faces (45.1% area) of pressure-outlet 7.
  4587  3.5701e-04  1.3447e-04  5.7766e-03  1.9123e-04  3.5041e-05  4.5302e-05  0:01:36 4413

 Reversed flow on 7 faces (45.1% area) of pressure-outlet 7.

  iter  continuity  x-velocity  y-velocity      energy           k     epsilon     time/iter
  4588  3.3977e-04  1.5327e-04  5.9834e-03  1.8202e-04  3.4521e-05  4.4869e-05  0:01:17 4412

 Reversed flow on 7 faces (45.1% area) of pressure-outlet 7.
  4589  3.2142e-04  1.7761e-04  6.1827e-03  1.7281e-04  3.4479e-05  4.5966e-05  0:01:02 4411

 Reversed flow on 7 faces (45.1% area) of pressure-outlet 7.
  4590  3.0302e-04  2.0404e-04  6.3684e-03  1.6425e-04  3.4928e-05  4.8731e-05  0:00:49 4410

 Reversed flow on 7 faces (45.1% area) of pressure-outlet 7.
  4591  2.8574e-04  2.2965e-04  6.5163e-03  1.5709e-04  3.6031e-05  5.2314e-05  0:00:39 4409

 Reversed flow on 7 faces (45.1% area) of pressure-outlet 7.
  4592  2.7079e-04  2.5304e-04  6.6338e-03  1.5234e-04  3.7546e-05  5.6058e-05  0:00:31 4408

 Reversed flow on 7 faces (45.1% area) of pressure-outlet 7.
  4593  2.5949e-04  2.7470e-04  6.7267e-03  1.5016e-04  3.8971e-05  5.9934e-05  0:00:25 4407

 Reversed flow on 7 faces (45.1% area) of pressure-outlet 7.
  4594  2.5346e-04  2.9227e-04  6.8221e-03  1.5042e-04  4.0443e-05  6.4076e-05  0:00:20 4406

 Reversed flow on 7 faces (45.1% area) of pressure-outlet 7.
  4595  2.5263e-04  3.0609e-04  6.9018e-03  1.5285e-04  4.1949e-05  6.8127e-05  0:14:57 4405

 Reversed flow on 7 faces (45.1% area) of pressure-outlet 7.
  4596  2.7788e-04  3.2664e-04  6.9070e-03  1.7631e-04  4.3514e-05  7.2020e-05  0:11:58 4404

 Reversed flow on 7 faces (45.1% area) of pressure-outlet 7.
  4597  3.0639e-04  3.6041e-04  6.9236e-03  2.0053e-04  4.4968e-05  7.5789e-05  0:09:34 4403

 Reversed flow on 7 faces (45.1% area) of pressure-outlet 7.
  4598  3.0875e-04  3.7262e-04  6.9001e-03  2.0287e-04  4.6362e-05  7.9339e-05  0:07:39 4402

 Reversed flow on 7 faces (45.1% area) of pressure-outlet 7.

  iter  continuity  x-velocity  y-velocity      energy           k     epsilon     time/iter
  4599  3.0596e-04  3.7511e-04  6.8065e-03  2.0035e-04  4.7706e-05  8.2650e-05  0:06:07 4401

 Reversed flow on 7 faces (45.1% area) of pressure-outlet 7.
  4600  3.0515e-04  3.7403e-04  6.6741e-03  1.9824e-04  4.8979e-05  8.5805e-05  0:04:54 4400

 Reversed flow on 7 faces (45.1% area) of pressure-outlet 7.
  4601  3.0672e-04  3.7113e-04  6.5313e-03  1.9672e-04  5.0240e-05  8.8715e-05  0:03:55 4399

 Reversed flow on 7 faces (45.1% area) of pressure-outlet 7.
  4602  3.0947e-04  3.6669e-04  6.3714e-03  1.9742e-04  5.1538e-05  9.1264e-05  0:03:08 4398

 Reversed flow on 7 faces (45.1% area) of pressure-outlet 7.
  4603  3.1278e-04  3.5991e-04  6.1910e-03  1.9809e-04  5.2772e-05  9.3287e-05  0:02:30 4397

 Reversed flow on 7 faces (45.1% area) of pressure-outlet 7.
  4604  3.1591e-04  3.5019e-04  5.9774e-03  1.9774e-04  5.3819e-05  9.4687e-05  0:02:00 4396

 Reversed flow on 7 faces (45.1% area) of pressure-outlet 7.
  4605  3.1833e-04  3.3741e-04  5.7324e-03  1.9643e-04  5.4663e-05  9.5346e-05  0:01:36 4395

 Reversed flow on 7 faces (45.1% area) of pressure-outlet 7.
  4606  3.1961e-04  3.2153e-04  5.4690e-03  1.9420e-04  5.5200e-05  9.5002e-05  0:01:17 4394

 Reversed flow on 7 faces (45.1% area) of pressure-outlet 7.
  4607  3.1958e-04  3.0260e-04  5.2040e-03  1.9135e-04  5.5344e-05  9.3690e-05  0:01:01 4393

 Reversed flow on 7 faces (45.1% area) of pressure-outlet 7.
  4608  3.1816e-04  2.8115e-04  4.9476e-03  1.8776e-04  5.5075e-05  9.1249e-05  0:00:49 4392

 Reversed flow on 7 faces (45.1% area) of pressure-outlet 7.
  4609  3.1576e-04  2.5762e-04  4.7124e-03  1.8362e-04  5.4264e-05  8.7684e-05  0:00:39 4391

 Reversed flow on 7 faces (45.1% area) of pressure-outlet 7.

  iter  continuity  x-velocity  y-velocity      energy           k     epsilon     time/iter
  4610  3.1249e-04  2.3244e-04  4.5105e-03  1.7914e-04  5.3043e-05  8.3188e-05  0:00:31 4390

 Reversed flow on 7 faces (45.1% area) of pressure-outlet 7.
  4611  3.0841e-04  2.0609e-04  4.3557e-03  1.7445e-04  5.1485e-05  7.8227e-05  0:00:25 4389

 Reversed flow on 7 faces (45.1% area) of pressure-outlet 7.
  4612  3.0372e-04  1.7941e-04  4.2537e-03  1.6951e-04  4.9561e-05  7.2970e-05  0:00:20 4388

 Reversed flow on 7 faces (45.1% area) of pressure-outlet 7.
  4613  2.9860e-04  1.5376e-04  4.2088e-03  1.6440e-04  4.7370e-05  6.7998e-05  0:14:53 4387

 Reversed flow on 7 faces (45.1% area) of pressure-outlet 7.
  4614  2.9297e-04  1.3147e-04  4.2172e-03  1.5964e-04  4.5463e-05  6.4405e-05  0:11:55 4386

 Reversed flow on 7 faces (45.1% area) of pressure-outlet 7.
  4615  2.8677e-04  1.1583e-04  4.2771e-03  1.5535e-04  4.3878e-05  6.2298e-05  0:09:32 4385

 Reversed flow on 7 faces (45.1% area) of pressure-outlet 7.
  4616  2.8013e-04  1.1073e-04  4.3872e-03  1.5155e-04  4.3032e-05  6.1687e-05  0:07:37 4384

 Reversed flow on 7 faces (45.1% area) of pressure-outlet 7.
  4617  2.7314e-04  1.1808e-04  4.5418e-03  1.4855e-04  4.2842e-05  6.2614e-05  0:06:06 4383

 Reversed flow on 7 faces (45.1% area) of pressure-outlet 7.
  4618  2.6609e-04  1.3616e-04  4.7314e-03  1.4638e-04  4.3097e-05  6.4714e-05  0:04:52 4382

 Reversed flow on 7 faces (45.1% area) of pressure-outlet 7.
  4619  2.5924e-04  1.6128e-04  4.9543e-03  1.4550e-04  4.3752e-05  6.7938e-05  0:03:54 4381

 Reversed flow on 7 faces (45.1% area) of pressure-outlet 7.
  4620  2.5288e-04  1.9027e-04  5.1988e-03  1.4542e-04  4.4874e-05  7.1822e-05  0:03:07 4380

 Reversed flow on 7 faces (45.1% area) of pressure-outlet 7.

  iter  continuity  x-velocity  y-velocity      energy           k     epsilon     time/iter
  4621  2.4729e-04  2.2096e-04  5.4697e-03  1.4554e-04  4.6287e-05  7.6186e-05  0:02:30 4379

 Reversed flow on 7 faces (45.1% area) of pressure-outlet 7.
  4622  2.4257e-04  2.5275e-04  5.7591e-03  1.4781e-04  4.8088e-05  8.0596e-05  0:02:00 4378

 Reversed flow on 7 faces (45.1% area) of pressure-outlet 7.
  4623  2.3948e-04  2.8411e-04  6.0516e-03  1.5152e-04  4.9981e-05  8.4726e-05  0:01:36 4377

 Reversed flow on 7 faces (45.1% area) of pressure-outlet 7.
  4624  2.3837e-04  3.1410e-04  6.3364e-03  1.5625e-04  5.1864e-05  8.8347e-05  0:01:17 4376

 Reversed flow on 7 faces (45.1% area) of pressure-outlet 7.
  4625  2.3936e-04  3.4204e-04  6.6002e-03  1.6145e-04  5.3578e-05  9.1376e-05  0:01:01 4375

 Reversed flow on 7 faces (45.1% area) of pressure-outlet 7.
  4626  2.4241e-04  3.6741e-04  6.8319e-03  1.6725e-04  5.4998e-05  9.3858e-05  0:00:49 4374

 Reversed flow on 7 faces (45.1% area) of pressure-outlet 7.
  4627  2.4740e-04  3.8973e-04  7.0176e-03  1.7355e-04  5.6070e-05  9.5767e-05  0:00:39 4373

 Reversed flow on 7 faces (45.1% area) of pressure-outlet 7.
  4628  2.5441e-04  4.0838e-04  7.1532e-03  1.8008e-04  5.6666e-05  9.7027e-05  0:00:31 4372

 Reversed flow on 7 faces (45.1% area) of pressure-outlet 7.
  4629  2.6364e-04  4.2243e-04  7.2412e-03  1.8648e-04  5.6887e-05  9.7449e-05  0:00:25 4371

 Reversed flow on 7 faces (45.1% area) of pressure-outlet 7.
  4630  2.7495e-04  4.3060e-04  7.2696e-03  1.9238e-04  5.6761e-05  9.7050e-05  0:00:20 4370

 Reversed flow on 7 faces (45.1% area) of pressure-outlet 7.
  4631  2.8732e-04  4.3320e-04  7.2166e-03  1.9762e-04  5.6291e-05  9.5880e-05  0:00:16 4369

 Reversed flow on 7 faces (45.1% area) of pressure-outlet 7.

  iter  continuity  x-velocity  y-velocity      energy           k     epsilon     time/iter
  4632  3.0030e-04  4.2933e-04  7.0963e-03  2.0188e-04  5.5493e-05  9.4116e-05  0:14:46 4368

 Reversed flow on 7 faces (45.1% area) of pressure-outlet 7.
  4633  3.1316e-04  4.1905e-04  6.8811e-03  2.0520e-04  5.4387e-05  9.1674e-05  0:11:49 4367

 Reversed flow on 7 faces (45.1% area) of pressure-outlet 7.
  4634  3.2598e-04  4.0292e-04  6.6874e-03  2.0827e-04  5.2984e-05  8.8562e-05  0:09:27 4366

 Reversed flow on 7 faces (45.1% area) of pressure-outlet 7.
  4635  3.3843e-04  3.8117e-04  6.5011e-03  2.1020e-04  5.1346e-05  8.4852e-05  0:07:34 4365

 Reversed flow on 7 faces (45.1% area) of pressure-outlet 7.
  4636  3.4590e-04  3.4265e-04  6.3246e-03  2.0596e-04  4.9565e-05  8.0593e-05  0:06:03 4364

 Reversed flow on 7 faces (45.1% area) of pressure-outlet 7.
  4637  3.6404e-04  2.8044e-04  6.1608e-03  2.0535e-04  4.7682e-05  7.5840e-05  0:04:50 4363

 Reversed flow on 7 faces (45.1% area) of pressure-outlet 7.
  4638  3.8509e-04  2.4581e-04  5.9522e-03  2.1489e-04  4.5701e-05  7.0757e-05  0:03:52 4362

 Reversed flow on 7 faces (45.1% area) of pressure-outlet 7.
  4639  3.9445e-04  2.0966e-04  5.7789e-03  2.1798e-04  4.3668e-05  6.5437e-05  0:03:06 4361

 Reversed flow on 7 faces (45.1% area) of pressure-outlet 7.
  4640  3.9629e-04  1.7657e-04  5.5975e-03  2.1709e-04  4.1652e-05  6.0222e-05  0:02:28 4360

 Reversed flow on 7 faces (45.1% area) of pressure-outlet 7.
  4641  3.9183e-04  1.4892e-04  5.4726e-03  2.1291e-04  3.9597e-05  5.5285e-05  0:01:59 4359

 Reversed flow on 7 faces (45.1% area) of pressure-outlet 7.
  4642  3.8217e-04  1.3086e-04  5.5005e-03  2.0616e-04  3.7622e-05  5.0542e-05  0:01:35 4358

 Reversed flow on 7 faces (45.1% area) of pressure-outlet 7.

  iter  continuity  x-velocity  y-velocity      energy           k     epsilon     time/iter
  4643  3.6887e-04  1.2732e-04  5.6327e-03  1.9794e-04  3.5960e-05  4.6979e-05  0:01:16 4357

 Reversed flow on 7 faces (45.1% area) of pressure-outlet 7.
  4644  3.5301e-04  1.3833e-04  5.8263e-03  1.8901e-04  3.4949e-05  4.5109e-05  0:01:01 4356

 Reversed flow on 7 faces (45.1% area) of pressure-outlet 7.
  4645  3.3540e-04  1.5895e-04  6.0333e-03  1.7974e-04  3.4541e-05  4.5073e-05  0:00:49 4355

 Reversed flow on 7 faces (45.1% area) of pressure-outlet 7.
  4646  3.1692e-04  1.8406e-04  6.2291e-03  1.7062e-04  3.4593e-05  4.6584e-05  0:00:39 4354

 Reversed flow on 7 faces (45.1% area) of pressure-outlet 7.
  4647  2.9867e-04  2.1054e-04  6.4088e-03  1.6236e-04  3.5210e-05  4.9661e-05  0:00:31 4353

 Reversed flow on 7 faces (45.1% area) of pressure-outlet 7.
  4648  2.8185e-04  2.3565e-04  6.5482e-03  1.5565e-04  3.6443e-05  5.3331e-05  0:00:25 4352

 Reversed flow on 7 faces (45.1% area) of pressure-outlet 7.
  4649  2.6764e-04  2.5875e-04  6.6587e-03  1.5153e-04  3.7990e-05  5.7067e-05  0:00:20 4351

 Reversed flow on 7 faces (45.1% area) of pressure-outlet 7.
  4650  2.5756e-04  2.7945e-04  6.7534e-03  1.5004e-04  3.9390e-05  6.0996e-05  0:14:46 4350

 Reversed flow on 7 faces (45.1% area) of pressure-outlet 7.
  4651  2.5283e-04  2.9610e-04  6.8470e-03  1.5081e-04  4.0886e-05  6.5186e-05  0:11:49 4349

 Reversed flow on 7 faces (45.1% area) of pressure-outlet 7.
  4652  2.5319e-04  3.0900e-04  6.9195e-03  1.5380e-04  4.2420e-05  6.9187e-05  0:09:27 4348

 Reversed flow on 7 faces (45.1% area) of pressure-outlet 7.
  4653  2.9353e-04  3.4054e-04  6.8978e-03  1.8947e-04  4.3957e-05  7.3054e-05  0:07:33 4347

 Reversed flow on 7 faces (45.1% area) of pressure-outlet 7.

  iter  continuity  x-velocity  y-velocity      energy           k     epsilon     time/iter
  4654  3.0993e-04  3.6649e-04  6.9287e-03  2.0358e-04  4.5402e-05  7.6796e-05  0:06:03 4346

 Reversed flow on 7 faces (45.1% area) of pressure-outlet 7.
  4655  3.0822e-04  3.7413e-04  6.8848e-03  2.0249e-04  4.6794e-05  8.0309e-05  0:04:50 4345

 Reversed flow on 7 faces (45.1% area) of pressure-outlet 7.
  4656  3.0532e-04  3.7501e-04  6.7753e-03  1.9960e-04  4.8135e-05  8.3586e-05  0:03:52 4344

 Reversed flow on 7 faces (45.1% area) of pressure-outlet 7.
  4657  3.0517e-04  3.7333e-04  6.6377e-03  1.9750e-04  4.9385e-05  8.6701e-05  0:03:05 4343

 Reversed flow on 7 faces (45.1% area) of pressure-outlet 7.
  4658  3.0721e-04  3.7013e-04  6.4925e-03  1.9678e-04  5.0665e-05  8.9529e-05  0:02:28 4342

 Reversed flow on 7 faces (45.1% area) of pressure-outlet 7.
  4659  3.1028e-04  3.6523e-04  6.3291e-03  1.9755e-04  5.1931e-05  9.1963e-05  0:01:59 4341

 Reversed flow on 7 faces (45.1% area) of pressure-outlet 7.
  4660  3.1355e-04  3.5778e-04  6.1430e-03  1.9813e-04  5.3148e-05  9.3840e-05  0:01:35 4340

 Reversed flow on 7 faces (45.1% area) of pressure-outlet 7.
  4661  3.1661e-04  3.4733e-04  5.9205e-03  1.9748e-04  5.4143e-05  9.5071e-05  0:01:16 4339

 Reversed flow on 7 faces (45.1% area) of pressure-outlet 7.
  4662  3.1881e-04  3.3381e-04  5.6692e-03  1.9596e-04  5.4928e-05  9.5457e-05  0:01:01 4338

 Reversed flow on 7 faces (45.1% area) of pressure-outlet 7.
  4663  3.1976e-04  3.1715e-04  5.4036e-03  1.9357e-04  5.5355e-05  9.4892e-05  0:00:49 4337

 Reversed flow on 7 faces (45.1% area) of pressure-outlet 7.
  4664  3.1939e-04  2.9755e-04  5.1395e-03  1.9054e-04  5.5413e-05  9.3283e-05  0:00:39 4336

 Reversed flow on 7 faces (45.1% area) of pressure-outlet 7.

  iter  continuity  x-velocity  y-velocity      energy           k     epsilon     time/iter
  4665  3.1770e-04  2.7555e-04  4.8869e-03  1.8679e-04  5.5008e-05  9.0541e-05  0:00:31 4335

 Reversed flow on 7 faces (45.1% area) of pressure-outlet 7.
  4666  3.1507e-04  2.5156e-04  4.6591e-03  1.8253e-04  5.4088e-05  8.6734e-05  0:00:25 4334

 Reversed flow on 7 faces (45.1% area) of pressure-outlet 7.
  4667  3.1158e-04  2.2604e-04  4.4673e-03  1.7802e-04  5.2792e-05  8.2109e-05  0:14:46 4333

 Reversed flow on 7 faces (45.1% area) of pressure-outlet 7.
  4668  3.0730e-04  1.9952e-04  4.3250e-03  1.7329e-04  5.1141e-05  7.6983e-05  0:11:49 4332

 Reversed flow on 7 faces (45.1% area) of pressure-outlet 7.
  4669  3.0252e-04  1.7292e-04  4.2371e-03  1.6822e-04  4.9121e-05  7.1727e-05  0:09:27 4331

 Reversed flow on 7 faces (45.1% area) of pressure-outlet 7.
  4670  2.9730e-04  1.4786e-04  4.2058e-03  1.6318e-04  4.6920e-05  6.6985e-05  0:07:34 4330

 Reversed flow on 7 faces (45.1% area) of pressure-outlet 7.
  4671  2.9155e-04  1.2686e-04  4.2270e-03  1.5854e-04  4.5077e-05  6.3821e-05  0:06:03 4329

 Reversed flow on 7 faces (45.1% area) of pressure-outlet 7.
  4672  2.8524e-04  1.1347e-04  4.2994e-03  1.5435e-04  4.3666e-05  6.1995e-05  0:04:50 4328

 Reversed flow on 7 faces (45.1% area) of pressure-outlet 7.
  4673  2.7850e-04  1.1139e-04  4.4212e-03  1.5072e-04  4.2934e-05  6.1845e-05  0:03:52 4327

 Reversed flow on 7 faces (45.1% area) of pressure-outlet 7.
  4674  2.7147e-04  1.2167e-04  4.5854e-03  1.4794e-04  4.2928e-05  6.3054e-05  0:03:06 4326

 Reversed flow on 7 faces (45.1% area) of pressure-outlet 7.
  4675  2.6445e-04  1.4183e-04  4.7831e-03  1.4603e-04  4.3265e-05  6.5476e-05  0:02:28 4325

 Reversed flow on 7 faces (45.1% area) of pressure-outlet 7.

  iter  continuity  x-velocity  y-velocity      energy           k     epsilon     time/iter
  4676  2.5770e-04  1.6815e-04  5.0126e-03  1.4543e-04  4.4010e-05  6.8891e-05  0:01:59 4324

 Reversed flow on 7 faces (45.1% area) of pressure-outlet 7.
  4677  2.5152e-04  1.9771e-04  5.2629e-03  1.4546e-04  4.5219e-05  7.2912e-05  0:01:35 4323

 Reversed flow on 7 faces (45.1% area) of pressure-outlet 7.
  4678  2.4614e-04  2.2866e-04  5.5400e-03  1.4572e-04  4.6760e-05  7.7340e-05  0:01:16 4322

 Reversed flow on 7 faces (45.1% area) of pressure-outlet 7.
  4679  2.4169e-04  2.6063e-04  5.8312e-03  1.4869e-04  4.8589e-05  8.1698e-05  0:15:25 4321

 Reversed flow on 7 faces (45.1% area) of pressure-outlet 7.
  4680  2.3913e-04  2.9169e-04  6.1241e-03  1.5270e-04  5.0495e-05  8.5704e-05  0:12:20 4320

 Reversed flow on 7 faces (45.1% area) of pressure-outlet 7.
  4681  2.3856e-04  3.2120e-04  6.4042e-03  1.5751e-04  5.2327e-05  8.9185e-05  0:09:52 4319

 Reversed flow on 7 faces (45.1% area) of pressure-outlet 7.
  4682  2.4005e-04  3.4854e-04  6.6605e-03  1.6282e-04  5.3991e-05  9.2084e-05  0:07:53 4318

 Reversed flow on 7 faces (45.1% area) of pressure-outlet 7.
  4683  2.4355e-04  3.7320e-04  6.8818e-03  1.6877e-04  5.5315e-05  9.4384e-05  0:06:19 4317

 Reversed flow on 7 faces (45.1% area) of pressure-outlet 7.
  4684  2.4900e-04  3.9467e-04  7.0544e-03  1.7517e-04  5.6239e-05  9.6178e-05  0:05:03 4316

 Reversed flow on 7 faces (45.1% area) of pressure-outlet 7.
  4685  2.5649e-04  4.1232e-04  7.1784e-03  1.8164e-04  5.6756e-05  9.7224e-05  0:04:02 4315

 Reversed flow on 7 faces (45.1% area) of pressure-outlet 7.
  4686  2.6626e-04  4.2488e-04  7.2545e-03  1.8799e-04  5.6862e-05  9.7460e-05  0:03:14 4314

 Reversed flow on 7 faces (45.1% area) of pressure-outlet 7.

  iter  continuity  x-velocity  y-velocity      energy           k     epsilon     time/iter
  4687  2.7785e-04  4.3176e-04  7.2614e-03  1.9371e-04  5.6705e-05  9.6823e-05  0:02:35 4313

 Reversed flow on 7 faces (45.1% area) of pressure-outlet 7.
  4688  2.9047e-04  4.3278e-04  7.1917e-03  1.9875e-04  5.6165e-05  9.5497e-05  0:02:04 4312

 Reversed flow on 7 faces (45.1% area) of pressure-outlet 7.
  4689  3.0346e-04  4.2732e-04  7.0366e-03  2.0273e-04  5.5278e-05  9.3615e-05  0:01:39 4311

 Reversed flow on 7 faces (45.1% area) of pressure-outlet 7.
  4690  3.1642e-04  4.1557e-04  6.8305e-03  2.0597e-04  5.4126e-05  9.1008e-05  0:01:19 4310

 Reversed flow on 7 faces (45.1% area) of pressure-outlet 7.
  4691  3.2909e-04  3.9797e-04  6.6401e-03  2.0889e-04  5.2674e-05  8.7767e-05  0:01:03 4309

 Reversed flow on 7 faces (45.1% area) of pressure-outlet 7.
  4692  3.4142e-04  3.7494e-04  6.4543e-03  2.1042e-04  5.1001e-05  8.3955e-05  0:00:51 4308

 Reversed flow on 7 faces (45.1% area) of pressure-outlet 7.
  4693  3.4487e-04  3.1848e-04  6.2869e-03  2.0022e-04  4.9204e-05  7.9570e-05  0:00:41 4307

 Reversed flow on 7 faces (45.1% area) of pressure-outlet 7.
  4694  3.6949e-04  2.7097e-04  6.1036e-03  2.0759e-04  4.7312e-05  7.4705e-05  0:00:32 4306

 Reversed flow on 7 faces (45.1% area) of pressure-outlet 7.
  4695  3.8761e-04  2.3636e-04  5.9048e-03  2.1564e-04  4.5294e-05  6.9547e-05  0:00:26 4305

 Reversed flow on 7 faces (45.1% area) of pressure-outlet 7.
  4696  3.9518e-04  2.0088e-04  5.7311e-03  2.1782e-04  4.3278e-05  6.4215e-05  0:14:42 4304

 Reversed flow on 7 faces (45.1% area) of pressure-outlet 7.
  4697  3.9547e-04  1.6898e-04  5.5428e-03  2.1616e-04  4.1250e-05  5.9071e-05  0:11:45 4303

 Reversed flow on 7 faces (45.1% area) of pressure-outlet 7.

  iter  continuity  x-velocity  y-velocity      energy           k     epsilon     time/iter
  4698  3.8973e-04  1.4324e-04  5.4658e-03  2.1136e-04  3.9200e-05  5.4165e-05  0:09:24 4302

 Reversed flow on 7 faces (45.1% area) of pressure-outlet 7.
  4699  3.7908e-04  1.2845e-04  5.5259e-03  2.0417e-04  3.7258e-05  4.9634e-05  0:07:31 4301

 Reversed flow on 7 faces (45.1% area) of pressure-outlet 7.
  4700  3.6509e-04  1.2877e-04  5.6800e-03  1.9573e-04  3.5727e-05  4.6403e-05  0:06:01 4300

 Reversed flow on 7 faces (45.1% area) of pressure-outlet 7.
  4701  3.4875e-04  1.4270e-04  5.8797e-03  1.8670e-04  3.4867e-05  4.5034e-05  0:04:49 4299

 Reversed flow on 7 faces (45.1% area) of pressure-outlet 7.
  4702  3.3085e-04  1.6481e-04  6.0837e-03  1.7740e-04  3.4569e-05  4.5320e-05  0:03:51 4298

 Reversed flow on 7 faces (45.1% area) of pressure-outlet 7.
  4703  3.1232e-04  1.9049e-04  6.2744e-03  1.6840e-04  3.4725e-05  4.7251e-05  0:03:05 4297

 Reversed flow on 7 faces (45.1% area) of pressure-outlet 7.
  4704  2.9430e-04  2.1679e-04  6.4433e-03  1.6047e-04  3.5521e-05  5.0604e-05  0:02:28 4296

 Reversed flow on 7 faces (45.1% area) of pressure-outlet 7.
  4705  2.7799e-04  2.4134e-04  6.5749e-03  1.5435e-04  3.6885e-05  5.4304e-05  0:01:58 4295

 Reversed flow on 7 faces (45.1% area) of pressure-outlet 7.
  4706  2.6463e-04  2.6408e-04  6.6789e-03  1.5086e-04  3.8391e-05  5.8050e-05  0:01:34 4294

 Reversed flow on 7 faces (45.1% area) of pressure-outlet 7.
  4707  2.5585e-04  2.8375e-04  6.7748e-03  1.5000e-04  3.9804e-05  6.2065e-05  0:01:16 4293

 Reversed flow on 7 faces (45.1% area) of pressure-outlet 7.
  4708  2.5240e-04  2.9949e-04  6.8646e-03  1.5125e-04  4.1317e-05  6.6246e-05  0:01:00 4292

 Reversed flow on 7 faces (45.1% area) of pressure-outlet 7.

  iter  continuity  x-velocity  y-velocity      energy           k     epsilon     time/iter
  4709  2.5675e-04  3.1084e-04  6.9189e-03  1.5757e-04  4.2884e-05  7.0243e-05  0:00:48 4291

 Reversed flow on 7 faces (45.1% area) of pressure-outlet 7.
  4710  3.0001e-04  3.4865e-04  6.9022e-03  1.9497e-04  4.4394e-05  7.4074e-05  0:00:39 4290

 Reversed flow on 7 faces (45.1% area) of pressure-outlet 7.
  4711  3.1016e-04  3.6927e-04  6.9218e-03  2.0387e-04  4.5808e-05  7.7770e-05  0:00:31 4289

 Reversed flow on 7 faces (45.1% area) of pressure-outlet 7.
  4712  3.0744e-04  3.7471e-04  6.8612e-03  2.0181e-04  4.7209e-05  8.1236e-05  0:00:25 4288

 Reversed flow on 7 faces (45.1% area) of pressure-outlet 7.
  4713  3.0507e-04  3.7479e-04  6.7427e-03  1.9914e-04  4.8530e-05  8.4480e-05  0:14:37 4287

 Reversed flow on 7 faces (45.1% area) of pressure-outlet 7.
  4714  3.0555e-04  3.7265e-04  6.6028e-03  1.9703e-04  4.9778e-05  8.7547e-05  0:11:42 4286

 Reversed flow on 7 faces (45.1% area) of pressure-outlet 7.
  4715  3.0786e-04  3.6909e-04  6.4538e-03  1.9697e-04  5.1058e-05  9.0275e-05  0:09:21 4285

 Reversed flow on 7 faces (45.1% area) of pressure-outlet 7.
  4716  3.1108e-04  3.6362e-04  6.2847e-03  1.9773e-04  5.2294e-05  9.2572e-05  0:07:29 4284

 Reversed flow on 7 faces (45.1% area) of pressure-outlet 7.
  4717  3.1429e-04  3.5544e-04  6.0909e-03  1.9808e-04  5.3477e-05  9.4290e-05  0:05:59 4283

 Reversed flow on 7 faces (45.1% area) of pressure-outlet 7.
  4718  3.1721e-04  3.4423e-04  5.8596e-03  1.9717e-04  5.4410e-05  9.5346e-05  0:04:47 4282

 Reversed flow on 7 faces (45.1% area) of pressure-outlet 7.
  4719  3.1916e-04  3.2998e-04  5.6033e-03  1.9541e-04  5.5126e-05  9.5464e-05  0:03:50 4281

 Reversed flow on 7 faces (45.1% area) of pressure-outlet 7.

  iter  continuity  x-velocity  y-velocity      energy           k     epsilon     time/iter
  4720  3.1979e-04  3.1254e-04  5.3378e-03  1.9285e-04  5.5467e-05  9.4665e-05  0:03:04 4280

 Reversed flow on 7 faces (45.1% area) of pressure-outlet 7.
  4721  3.1911e-04  2.9231e-04  5.0756e-03  1.8965e-04  5.5427e-05  9.2778e-05  0:02:27 4279

 Reversed flow on 7 faces (45.1% area) of pressure-outlet 7.
  4722  3.1716e-04  2.6978e-04  4.8277e-03  1.8576e-04  5.4882e-05  8.9746e-05  0:01:57 4278

 Reversed flow on 7 faces (45.1% area) of pressure-outlet 7.
  4723  3.1431e-04  2.4538e-04  4.6077e-03  1.8142e-04  5.3873e-05  8.5686e-05  0:01:34 4277

 Reversed flow on 7 faces (45.1% area) of pressure-outlet 7.
  4724  3.1060e-04  2.1956e-04  4.4267e-03  1.7687e-04  5.2492e-05  8.0947e-05  0:01:15 4276

 Reversed flow on 7 faces (45.1% area) of pressure-outlet 7.
  4725  3.0619e-04  1.9292e-04  4.2977e-03  1.7205e-04  5.0722e-05  7.5725e-05  0:01:00 4275

 Reversed flow on 7 faces (45.1% area) of pressure-outlet 7.
  4726  3.0131e-04  1.6651e-04  4.2244e-03  1.6693e-04  4.8615e-05  7.0472e-05  0:00:48 4274

 Reversed flow on 7 faces (45.1% area) of pressure-outlet 7.
  4727  2.9597e-04  1.4218e-04  4.2061e-03  1.6198e-04  4.6459e-05  6.6103e-05  0:00:38 4273

 Reversed flow on 7 faces (45.1% area) of pressure-outlet 7.
  4728  2.9006e-04  1.2270e-04  4.2397e-03  1.5746e-04  4.4684e-05  6.3248e-05  0:00:31 4272

 Reversed flow on 7 faces (45.1% area) of pressure-outlet 7.
  4729  2.8363e-04  1.1180e-04  4.3245e-03  1.5338e-04  4.3458e-05  6.1762e-05  0:00:25 4271

 Reversed flow on 7 faces (45.1% area) of pressure-outlet 7.
  4730  2.7678e-04  1.1280e-04  4.4576e-03  1.4995e-04  4.2883e-05  6.1995e-05  0:14:34 4270

 Reversed flow on 7 faces (45.1% area) of pressure-outlet 7.

  iter  continuity  x-velocity  y-velocity      energy           k     epsilon     time/iter
  4731  2.6978e-04  1.2584e-04  4.6307e-03  1.4736e-04  4.2982e-05  6.3510e-05  0:11:39 4269

 Reversed flow on 7 faces (45.1% area) of pressure-outlet 7.
  4732  2.6280e-04  1.4783e-04  4.8372e-03  1.4577e-04  4.3404e-05  6.6222e-05  0:09:19 4268

 Reversed flow on 7 faces (45.1% area) of pressure-outlet 7.
  4733  2.5616e-04  1.7517e-04  5.0723e-03  1.4538e-04  4.4251e-05  6.9842e-05  0:07:27 4267

 Reversed flow on 7 faces (45.1% area) of pressure-outlet 7.
  4734  2.5016e-04  2.0518e-04  5.3290e-03  1.4550e-04  4.5540e-05  7.3960e-05  0:05:58 4266

 Reversed flow on 7 faces (45.1% area) of pressure-outlet 7.
  4735  2.4500e-04  2.3641e-04  5.6100e-03  1.4627e-04  4.7189e-05  7.8425e-05  0:04:46 4265

 Reversed flow on 7 faces (45.1% area) of pressure-outlet 7.
  4736  2.4095e-04  2.6823e-04  5.9020e-03  1.4944e-04  4.9047e-05  8.2700e-05  0:03:49 4264

 Reversed flow on 7 faces (45.1% area) of pressure-outlet 7.
  4737  2.3883e-04  2.9901e-04  6.1925e-03  1.5379e-04  5.0965e-05  8.6587e-05  0:03:03 4263

 Reversed flow on 7 faces (45.1% area) of pressure-outlet 7.
  4738  2.3876e-04  3.2805e-04  6.4672e-03  1.5873e-04  5.2787e-05  8.9957e-05  0:02:26 4262

 Reversed flow on 7 faces (45.1% area) of pressure-outlet 7.
  4739  2.4076e-04  3.5477e-04  6.7161e-03  1.6418e-04  5.4361e-05  9.2738e-05  0:01:57 4261

 Reversed flow on 7 faces (45.1% area) of pressure-outlet 7.
  4740  2.4474e-04  3.7870e-04  6.9273e-03  1.7026e-04  5.5553e-05  9.4827e-05  0:01:34 4260

 Reversed flow on 7 faces (45.1% area) of pressure-outlet 7.
  4741  2.5067e-04  3.9929e-04  7.0875e-03  1.7675e-04  5.6347e-05  9.6509e-05  0:01:15 4259

 Reversed flow on 7 faces (45.1% area) of pressure-outlet 7.

  iter  continuity  x-velocity  y-velocity      energy           k     epsilon     time/iter
  4742  2.5865e-04  4.1591e-04  7.1998e-03  1.8318e-04  5.6782e-05  9.7350e-05  0:01:00 4258

 Reversed flow on 7 faces (45.1% area) of pressure-outlet 7.
  4743  2.6895e-04  4.2698e-04  7.2637e-03  1.8943e-04  5.6841e-05  9.7339e-05  0:00:48 4257

 Reversed flow on 7 faces (45.1% area) of pressure-outlet 7.
  4744  2.8083e-04  4.3256e-04  7.2499e-03  1.9501e-04  5.6614e-05  9.6563e-05  0:00:38 4256

 Reversed flow on 7 faces (45.1% area) of pressure-outlet 7.
  4745  2.9365e-04  4.3201e-04  7.1636e-03  1.9980e-04  5.6006e-05  9.5120e-05  0:00:31 4255

 Reversed flow on 7 faces (45.1% area) of pressure-outlet 7.
  4746  3.0668e-04  4.2497e-04  6.9813e-03  2.0355e-04  5.5085e-05  9.3090e-05  0:00:24 4254

 Reversed flow on 7 faces (45.1% area) of pressure-outlet 7.
  4747  3.1959e-04  4.1178e-04  6.7816e-03  2.0672e-04  5.3844e-05  9.0334e-05  0:00:20 4253

 Reversed flow on 7 faces (45.1% area) of pressure-outlet 7.
  4748  3.3216e-04  3.9279e-04  6.5936e-03  2.0943e-04  5.2346e-05  8.6953e-05  0:14:26 4252

 Reversed flow on 7 faces (45.1% area) of pressure-outlet 7.
  4749  3.4430e-04  3.6846e-04  6.4085e-03  2.1058e-04  5.0642e-05  8.3014e-05  0:11:33 4251

 Reversed flow on 7 faces (45.1% area) of pressure-outlet 7.
  4750  3.4830e-04  3.0044e-04  6.2489e-03  1.9874e-04  4.8830e-05  7.8513e-05  0:09:14 4250

 Reversed flow on 7 faces (45.1% area) of pressure-outlet 7.
  4751  3.7504e-04  2.6240e-04  6.0503e-03  2.1012e-04  4.6919e-05  7.3562e-05  0:07:23 4249

 Reversed flow on 7 faces (45.1% area) of pressure-outlet 7.
  4752  3.9007e-04  2.2728e-04  5.8606e-03  2.1645e-04  4.4895e-05  6.8329e-05  0:05:54 4248

 Reversed flow on 7 faces (45.1% area) of pressure-outlet 7.

  iter  continuity  x-velocity  y-velocity      energy           k     epsilon     time/iter
  4753  3.9582e-04  1.9257e-04  5.6867e-03  2.1767e-04  4.2879e-05  6.3022e-05  0:04:43 4247

 Reversed flow on 7 faces (45.1% area) of pressure-outlet 7.
  4754  3.9454e-04  1.6191e-04  5.5023e-03  2.1519e-04  4.0835e-05  5.7918e-05  0:03:47 4246

 Reversed flow on 7 faces (45.1% area) of pressure-outlet 7.
  4755  3.8749e-04  1.3835e-04  5.4694e-03  2.0975e-04  3.8794e-05  5.3028e-05  0:03:01 4245

 Reversed flow on 7 faces (45.1% area) of pressure-outlet 7.
  4756  3.7592e-04  1.2705e-04  5.5564e-03  2.0217e-04  3.6899e-05  4.8791e-05  0:02:25 4244

 Reversed flow on 7 faces (45.1% area) of pressure-outlet 7.
  4757  3.6128e-04  1.3109e-04  5.7278e-03  1.9355e-04  3.5521e-05  4.5890e-05  0:01:56 4243

 Reversed flow on 7 faces (45.1% area) of pressure-outlet 7.
  4758  3.4450e-04  1.4756e-04  5.9317e-03  1.8443e-04  3.4820e-05  4.5006e-05  0:01:33 4242

 Reversed flow on 7 faces (45.1% area) of pressure-outlet 7.
  4759  3.2636e-04  1.7088e-04  6.1327e-03  1.7514e-04  3.4614e-05  4.5642e-05  0:01:14 4241

 Reversed flow on 7 faces (45.1% area) of pressure-outlet 7.
  4760  3.0785e-04  1.9699e-04  6.3199e-03  1.6632e-04  3.4909e-05  4.8061e-05  0:00:59 4240

 Reversed flow on 7 faces (45.1% area) of pressure-outlet 7.
  4761  2.9013e-04  2.2300e-04  6.4783e-03  1.5875e-04  3.5861e-05  5.1563e-05  0:00:47 4239

 Reversed flow on 7 faces (45.1% area) of pressure-outlet 7.
  4762  2.7442e-04  2.4694e-04  6.6028e-03  1.5329e-04  3.7309e-05  5.5266e-05  0:00:38 4238

 Reversed flow on 7 faces (45.1% area) of pressure-outlet 7.
  4763  2.6197e-04  2.6926e-04  6.6998e-03  1.5041e-04  3.8750e-05  5.9042e-05  0:00:30 4237

 Reversed flow on 7 faces (45.1% area) of pressure-outlet 7.

  iter  continuity  x-velocity  y-velocity      energy           k     epsilon     time/iter
  4764  2.5451e-04  2.8790e-04  6.7959e-03  1.5013e-04  4.0212e-05  6.3136e-05  0:00:24 4236

 Reversed flow on 7 faces (45.1% area) of pressure-outlet 7.
  4765  2.5232e-04  3.0272e-04  6.8805e-03  1.5193e-04  4.1724e-05  6.7265e-05  0:14:26 4235

 Reversed flow on 7 faces (45.1% area) of pressure-outlet 7.
  4766  2.6490e-04  3.1617e-04  6.9131e-03  1.6505e-04  4.3331e-05  7.1247e-05  0:11:33 4234

 Reversed flow on 7 faces (45.1% area) of pressure-outlet 7.
  4767  3.0288e-04  3.5415e-04  6.9130e-03  1.9750e-04  4.4821e-05  7.5066e-05  0:09:14 4233

 Reversed flow on 7 faces (45.1% area) of pressure-outlet 7.
  4768  3.0937e-04  3.7087e-04  6.9118e-03  2.0330e-04  4.6225e-05  7.8712e-05  0:07:23 4232

 Reversed flow on 7 faces (45.1% area) of pressure-outlet 7.
  4769  3.0666e-04  3.7495e-04  6.8353e-03  2.0108e-04  4.7607e-05  8.2138e-05  0:05:55 4231

 Reversed flow on 7 faces (45.1% area) of pressure-outlet 7.
  4770  3.0507e-04  3.7449e-04  6.7100e-03  1.9883e-04  4.8900e-05  8.5360e-05  0:04:44 4230

 Reversed flow on 7 faces (45.1% area) of pressure-outlet 7.
  4771  3.0612e-04  3.7195e-04  6.5689e-03  1.9672e-04  5.0167e-05  8.8360e-05  0:03:47 4229

 Reversed flow on 7 faces (45.1% area) of pressure-outlet 7.
  4772  3.0861e-04  3.6799e-04  6.4140e-03  1.9719e-04  5.1438e-05  9.1003e-05  0:03:01 4228

 Reversed flow on 7 faces (45.1% area) of pressure-outlet 7.
  4773  3.1192e-04  3.6191e-04  6.2394e-03  1.9794e-04  5.2658e-05  9.3152e-05  0:02:25 4227

 Reversed flow on 7 faces (45.1% area) of pressure-outlet 7.
  4774  3.1511e-04  3.5297e-04  6.0363e-03  1.9793e-04  5.3803e-05  9.4680e-05  0:01:56 4226

 Reversed flow on 7 faces (45.1% area) of pressure-outlet 7.

  iter  continuity  x-velocity  y-velocity      energy           k     epsilon     time/iter
  4775  3.1781e-04  3.4100e-04  5.7983e-03  1.9683e-04  5.4657e-05  9.5557e-05  0:01:33 4225

 Reversed flow on 7 faces (45.1% area) of pressure-outlet 7.
  4776  3.1945e-04  3.2598e-04  5.5381e-03  1.9484e-04  5.5306e-05  9.5428e-05  0:01:14 4224

 Reversed flow on 7 faces (45.1% area) of pressure-outlet 7.
  4777  3.1974e-04  3.0780e-04  5.2727e-03  1.9213e-04  5.5556e-05  9.4379e-05  0:00:59 4223

 Reversed flow on 7 faces (45.1% area) of pressure-outlet 7.
  4778  3.1875e-04  2.8697e-04  5.0130e-03  1.8875e-04  5.5418e-05  9.2218e-05  0:00:47 4222

 Reversed flow on 7 faces (45.1% area) of pressure-outlet 7.
  4779  3.1659e-04  2.6395e-04  4.7709e-03  1.8473e-04  5.4741e-05  8.8904e-05  0:00:38 4221

 Reversed flow on 7 faces (45.1% area) of pressure-outlet 7.
  4780  3.1353e-04  2.3916e-04  4.5593e-03  1.8031e-04  5.3646e-05  8.4619e-05  0:00:30 4220

 Reversed flow on 7 faces (45.1% area) of pressure-outlet 7.
  4781  3.0964e-04  2.1307e-04  4.3907e-03  1.7568e-04  5.2173e-05  7.9778e-05  0:00:24 4219

 Reversed flow on 7 faces (45.1% area) of pressure-outlet 7.
  4782  3.0508e-04  1.8638e-04  4.2744e-03  1.7085e-04  5.0294e-05  7.4471e-05  0:00:19 4218

 Reversed flow on 7 faces (45.1% area) of pressure-outlet 7.
  4783  3.0010e-04  1.6027e-04  4.2151e-03  1.6569e-04  4.8103e-05  6.9297e-05  0:14:19 4217

 Reversed flow on 7 faces (45.1% area) of pressure-outlet 7.
  4784  2.9462e-04  1.3683e-04  4.2097e-03  1.6084e-04  4.6022e-05  6.5221e-05  0:11:27 4216

 Reversed flow on 7 faces (45.1% area) of pressure-outlet 7.
  4785  2.8858e-04  1.1907e-04  4.2560e-03  1.5643e-04  4.4301e-05  6.2734e-05  0:09:09 4215

 Reversed flow on 7 faces (45.1% area) of pressure-outlet 7.

  iter  continuity  x-velocity  y-velocity      energy           k     epsilon     time/iter
  4786  2.8204e-04  1.1087e-04  4.3531e-03  1.5247e-04  4.3292e-05  6.1669e-05  0:07:19 4214

 Reversed flow on 7 faces (45.1% area) of pressure-outlet 7.
  4787  2.7513e-04  1.1497e-04  4.4968e-03  1.4924e-04  4.2877e-05  6.2268e-05  0:05:51 4213

 Reversed flow on 7 faces (45.1% area) of pressure-outlet 7.
  4788  2.6814e-04  1.3055e-04  4.6785e-03  1.4685e-04  4.3041e-05  6.4036e-05  0:04:41 4212

 Reversed flow on 7 faces (45.1% area) of pressure-outlet 7.
  4789  2.6122e-04  1.5416e-04  4.8930e-03  1.4560e-04  4.3593e-05  6.7054e-05  0:03:45 4211

 Reversed flow on 7 faces (45.1% area) of pressure-outlet 7.
  4790  2.5470e-04  1.8237e-04  5.1328e-03  1.4540e-04  4.4577e-05  7.0799e-05  0:03:00 4210

 Reversed flow on 7 faces (45.1% area) of pressure-outlet 7.
  4791  2.4890e-04  2.1274e-04  5.3956e-03  1.4553e-04  4.5937e-05  7.5051e-05  0:02:24 4209

 Reversed flow on 7 faces (45.1% area) of pressure-outlet 7.
  4792  2.4395e-04  2.4423e-04  5.6807e-03  1.4694e-04  4.7644e-05  7.9501e-05  0:01:55 4208

 Reversed flow on 7 faces (45.1% area) of pressure-outlet 7.
  4793  2.4035e-04  2.7586e-04  5.9735e-03  1.5035e-04  4.9513e-05  8.3695e-05  0:01:32 4207

 Reversed flow on 7 faces (45.1% area) of pressure-outlet 7.
  4794  2.3869e-04  3.0629e-04  6.2609e-03  1.5496e-04  5.1428e-05  8.7485e-05  0:01:14 4206

 Reversed flow on 7 faces (45.1% area) of pressure-outlet 7.
  4795  2.3912e-04  3.3482e-04  6.5316e-03  1.6003e-04  5.3222e-05  9.0709e-05  0:00:59 4205

 Reversed flow on 7 faces (45.1% area) of pressure-outlet 7.
  4796  2.4165e-04  3.6092e-04  6.7731e-03  1.6563e-04  5.4715e-05  9.3369e-05  0:00:47 4204

 Reversed flow on 7 faces (45.1% area) of pressure-outlet 7.

  iter  continuity  x-velocity  y-velocity      energy           k     epsilon     time/iter
  4797  2.4611e-04  3.8409e-04  6.9726e-03  1.7182e-04  5.5785e-05  9.5316e-05  0:00:38 4203

 Reversed flow on 7 faces (45.1% area) of pressure-outlet 7.
  4798  2.5253e-04  4.0377e-04  7.1205e-03  1.7835e-04  5.6459e-05  9.6819e-05  0:00:30 4202

 Reversed flow on 7 faces (45.1% area) of pressure-outlet 7.
  4799  2.6101e-04  4.1934e-04  7.2212e-03  1.8476e-04  5.6839e-05  9.7424e-05  0:14:24 4201

 Reversed flow on 7 faces (45.1% area) of pressure-outlet 7.
  4800  2.7181e-04  4.2890e-04  7.2720e-03  1.9089e-04  5.6837e-05  9.7212e-05  0:11:31 4200

 Reversed flow on 7 faces (45.1% area) of pressure-outlet 7.
  4801  2.8394e-04  4.3316e-04  7.2375e-03  1.9633e-04  5.6520e-05  9.6283e-05  0:09:13 4199

 Reversed flow on 7 faces (45.1% area) of pressure-outlet 7.
  4802  2.9692e-04  4.3100e-04  7.1348e-03  2.0085e-04  5.5866e-05  9.4746e-05  0:07:22 4198

 Reversed flow on 7 faces (45.1% area) of pressure-outlet 7.
  4803  3.0994e-04  4.2237e-04  6.9319e-03  2.0438e-04  5.4880e-05  9.2560e-05  0:05:54 4197

 Reversed flow on 7 faces (45.1% area) of pressure-outlet 7.
  4804  3.2285e-04  4.0775e-04  6.7363e-03  2.0752e-04  5.3571e-05  8.9662e-05  0:04:43 4196

 Reversed flow on 7 faces (45.1% area) of pressure-outlet 7.
  4805  3.3535e-04  3.8740e-04  6.5492e-03  2.0988e-04  5.2022e-05  8.6137e-05  0:03:46 4195

 Reversed flow on 7 faces (45.1% area) of pressure-outlet 7.
  4806  3.4719e-04  3.6178e-04  6.3658e-03  2.1081e-04  5.0299e-05  8.2058e-05  0:03:01 4194

 Reversed flow on 7 faces (45.1% area) of pressure-outlet 7.
  4807  3.5589e-04  2.8908e-04  6.2123e-03  2.0139e-04  4.8475e-05  7.7427e-05  0:02:25 4193

 Reversed flow on 7 faces (45.1% area) of pressure-outlet 7.

  iter  continuity  x-velocity  y-velocity      energy           k     epsilon     time/iter
  4808  3.8082e-04  2.5477e-04  6.0029e-03  2.1297e-04  4.6529e-05  7.2406e-05  0:01:56 4192

 Reversed flow on 7 faces (45.1% area) of pressure-outlet 7.
  4809  3.9275e-04  2.1884e-04  5.8243e-03  2.1750e-04  4.4502e-05  6.7099e-05  0:01:33 4191

 Reversed flow on 7 faces (45.1% area) of pressure-outlet 7.
  4810  3.9652e-04  1.8478e-04  5.6485e-03  2.1760e-04  4.2479e-05  6.1839e-05  0:01:14 4190

 Reversed flow on 7 faces (45.1% area) of pressure-outlet 7.
  4811  3.9363e-04  1.5545e-04  5.4866e-03  2.1428e-04  4.0427e-05  5.6794e-05  0:00:59 4189

 Reversed flow on 7 faces (45.1% area) of pressure-outlet 7.
  4812  3.8524e-04  1.3434e-04  5.4816e-03  2.0814e-04  3.8395e-05  5.1907e-05  0:00:47 4188

 Reversed flow on 7 faces (45.1% area) of pressure-outlet 7.
  4813  3.7277e-04  1.2672e-04  5.5906e-03  2.0020e-04  3.6579e-05  4.7967e-05  0:14:35 4187

 Reversed flow on 7 faces (45.1% area) of pressure-outlet 7.
  4814  3.5752e-04  1.3426e-04  5.7741e-03  1.9141e-04  3.5351e-05  4.5537e-05  0:11:40 4186

 Reversed flow on 7 faces (45.1% area) of pressure-outlet 7.
  4815  3.4030e-04  1.5293e-04  5.9809e-03  1.8221e-04  3.4798e-05  4.5051e-05  0:09:20 4185

 Reversed flow on 7 faces (45.1% area) of pressure-outlet 7.
  4816  3.2196e-04  1.7722e-04  6.1804e-03  1.7299e-04  3.4690e-05  4.6124e-05  0:07:28 4184

 Reversed flow on 7 faces (45.1% area) of pressure-outlet 7.
  4817  3.0355e-04  2.0364e-04  6.3663e-03  1.6441e-04  3.5119e-05  4.8925e-05  0:05:58 4183

 Reversed flow on 7 faces (45.1% area) of pressure-outlet 7.
  4818  2.8620e-04  2.2928e-04  6.5149e-03  1.5722e-04  3.6216e-05  5.2527e-05  0:04:46 4182

 Reversed flow on 7 faces (45.1% area) of pressure-outlet 7.

  iter  continuity  x-velocity  y-velocity      energy           k     epsilon     time/iter
  4819  2.7117e-04  2.5269e-04  6.6328e-03  1.5243e-04  3.7729e-05  5.6250e-05  0:03:49 4181

 Reversed flow on 7 faces (45.1% area) of pressure-outlet 7.
  4820  2.5975e-04  2.7441e-04  6.7257e-03  1.5020e-04  3.9140e-05  6.0065e-05  0:03:03 4180

 Reversed flow on 7 faces (45.1% area) of pressure-outlet 7.
  4821  2.5360e-04  2.9204e-04  6.8211e-03  1.5042e-04  4.0635e-05  6.4222e-05  0:02:27 4179

 Reversed flow on 7 faces (45.1% area) of pressure-outlet 7.
  4822  2.5266e-04  3.0592e-04  6.9013e-03  1.5281e-04  4.2176e-05  6.8295e-05  0:01:57 4178

 Reversed flow on 7 faces (45.1% area) of pressure-outlet 7.
  4823  2.7699e-04  3.2589e-04  6.9083e-03  1.7554e-04  4.3760e-05  7.2250e-05  0:01:34 4177

 Reversed flow on 7 faces (45.1% area) of pressure-outlet 7.
  4824  3.0619e-04  3.6006e-04  6.9238e-03  2.0035e-04  4.5247e-05  7.6058e-05  0:01:15 4176

 Reversed flow on 7 faces (45.1% area) of pressure-outlet 7.
  4825  3.0884e-04  3.7256e-04  6.9015e-03  2.0292e-04  4.6642e-05  7.9671e-05  0:01:00 4175

 Reversed flow on 7 faces (45.1% area) of pressure-outlet 7.
  4826  3.0605e-04  3.7515e-04  6.8088e-03  2.0042e-04  4.8001e-05  8.3049e-05  0:00:48 4174

 Reversed flow on 7 faces (45.1% area) of pressure-outlet 7.
  4827  3.0518e-04  3.7411e-04  6.6771e-03  1.9830e-04  4.9289e-05  8.6230e-05  0:00:38 4173

 Reversed flow on 7 faces (45.1% area) of pressure-outlet 7.
  4828  3.0675e-04  3.7123e-04  6.5345e-03  1.9674e-04  5.0575e-05  8.9180e-05  0:00:31 4172

 Reversed flow on 7 faces (45.1% area) of pressure-outlet 7.
  4829  3.0951e-04  3.6681e-04  6.3748e-03  1.9743e-04  5.1841e-05  9.1717e-05  0:00:25 4171

 Reversed flow on 7 faces (45.1% area) of pressure-outlet 7.

  iter  continuity  x-velocity  y-velocity      energy           k     epsilon     time/iter
  4830  3.1284e-04  3.6007e-04  6.1947e-03  1.9811e-04  5.3037e-05  9.3712e-05  0:00:20 4170

 Reversed flow on 7 faces (45.1% area) of pressure-outlet 7.
  4831  3.1599e-04  3.5040e-04  5.9817e-03  1.9778e-04  5.4119e-05  9.5074e-05  0:00:16 4169

 Reversed flow on 7 faces (45.1% area) of pressure-outlet 7.
  4832  3.1845e-04  3.3767e-04  5.7371e-03  1.9649e-04  5.4915e-05  9.5708e-05  0:14:06 4168

 Reversed flow on 7 faces (45.1% area) of pressure-outlet 7.
  4833  3.1977e-04  3.2185e-04  5.4738e-03  1.9427e-04  5.5458e-05  9.5358e-05  0:11:17 4167

 Reversed flow on 7 faces (45.1% area) of pressure-outlet 7.
  4834  3.1970e-04  3.0296e-04  5.2087e-03  1.9143e-04  5.5625e-05  9.4035e-05  0:09:01 4166

 Reversed flow on 7 faces (45.1% area) of pressure-outlet 7.
  4835  3.1841e-04  2.8154e-04  4.9521e-03  1.8786e-04  5.5370e-05  9.1581e-05  0:07:13 4165

 Reversed flow on 7 faces (45.1% area) of pressure-outlet 7.
  4836  3.1602e-04  2.5804e-04  4.7165e-03  1.8372e-04  5.4572e-05  8.8014e-05  0:05:46 4164

 Reversed flow on 7 faces (45.1% area) of pressure-outlet 7.
  4837  3.1276e-04  2.3288e-04  4.5139e-03  1.7924e-04  5.3387e-05  8.3546e-05  0:04:37 4163

 Reversed flow on 7 faces (45.1% area) of pressure-outlet 7.
  4838  3.0868e-04  2.0654e-04  4.3582e-03  1.7455e-04  5.1814e-05  7.8570e-05  0:03:41 4162

 Reversed flow on 7 faces (45.1% area) of pressure-outlet 7.
  4839  3.0402e-04  1.7986e-04  4.2555e-03  1.6963e-04  4.9835e-05  7.3252e-05  0:02:57 4161

 Reversed flow on 7 faces (45.1% area) of pressure-outlet 7.
  4840  2.9892e-04  1.5418e-04  4.2096e-03  1.6452e-04  4.7571e-05  6.8199e-05  0:02:22 4160

 Reversed flow on 7 faces (45.1% area) of pressure-outlet 7.

  iter  continuity  x-velocity  y-velocity      energy           k     epsilon     time/iter
  4841  2.9332e-04  1.3181e-04  4.2172e-03  1.5975e-04  4.5614e-05  6.4494e-05  0:01:53 4159

 Reversed flow on 7 faces (45.1% area) of pressure-outlet 7.
  4842  2.8714e-04  1.1603e-04  4.2763e-03  1.5545e-04  4.3998e-05  6.2369e-05  0:01:31 4158

 Reversed flow on 7 faces (45.1% area) of pressure-outlet 7.
  4843  2.8050e-04  1.1073e-04  4.3857e-03  1.5164e-04  4.3132e-05  6.1761e-05  0:01:12 4157

 Reversed flow on 7 faces (45.1% area) of pressure-outlet 7.
  4844  2.7355e-04  1.1789e-04  4.5396e-03  1.4863e-04  4.2910e-05  6.2654e-05  0:00:58 4156

 Reversed flow on 7 faces (45.1% area) of pressure-outlet 7.
  4845  2.6656e-04  1.3583e-04  4.7291e-03  1.4645e-04  4.3140e-05  6.4718e-05  0:00:46 4155

 Reversed flow on 7 faces (45.1% area) of pressure-outlet 7.
  4846  2.5971e-04  1.6086e-04  4.9511e-03  1.4555e-04  4.3795e-05  6.7945e-05  0:00:37 4154

 Reversed flow on 7 faces (45.1% area) of pressure-outlet 7.
  4847  2.5335e-04  1.8980e-04  5.1952e-03  1.4546e-04  4.4905e-05  7.1817e-05  0:00:30 4153

 Reversed flow on 7 faces (45.1% area) of pressure-outlet 7.
  4848  2.4774e-04  2.2048e-04  5.4655e-03  1.4558e-04  4.6365e-05  7.6147e-05  0:14:14 4152

 Reversed flow on 7 faces (45.1% area) of pressure-outlet 7.
  4849  2.4302e-04  2.5226e-04  5.7547e-03  1.4779e-04  4.8151e-05  8.0595e-05  0:11:23 4151

 Reversed flow on 7 faces (45.1% area) of pressure-outlet 7.
  4850  2.3992e-04  2.8364e-04  6.0474e-03  1.5148e-04  5.0014e-05  8.4727e-05  0:09:06 4150

 Reversed flow on 7 faces (45.1% area) of pressure-outlet 7.
  4851  2.3879e-04  3.1366e-04  6.3325e-03  1.5622e-04  5.1893e-05  8.8387e-05  0:07:17 4149

 Reversed flow on 7 faces (45.1% area) of pressure-outlet 7.

  iter  continuity  x-velocity  y-velocity      energy           k     epsilon     time/iter
  4852  2.3973e-04  3.4163e-04  6.5967e-03  1.6140e-04  5.3642e-05  9.1455e-05  0:05:50 4148

 Reversed flow on 7 faces (45.1% area) of pressure-outlet 7.
  4853  2.4274e-04  3.6706e-04  6.8291e-03  1.6719e-04  5.5003e-05  9.3949e-05  0:04:40 4147

 Reversed flow on 7 faces (45.1% area) of pressure-outlet 7.
  4854  2.4766e-04  3.8943e-04  7.0157e-03  1.7348e-04  5.5997e-05  9.5813e-05  0:03:44 4146

 Reversed flow on 7 faces (45.1% area) of pressure-outlet 7.
  4855  2.5455e-04  4.0815e-04  7.1521e-03  1.8000e-04  5.6585e-05  9.7096e-05  0:02:59 4145

 Reversed flow on 7 faces (45.1% area) of pressure-outlet 7.
  4856  2.6359e-04  4.2230e-04  7.2409e-03  1.8640e-04  5.6879e-05  9.7470e-05  0:02:23 4144

 Reversed flow on 7 faces (45.1% area) of pressure-outlet 7.
  4857  2.7473e-04  4.3055e-04  7.2707e-03  1.9231e-04  5.6838e-05  9.7072e-05  0:01:54 4143

 Reversed flow on 7 faces (45.1% area) of pressure-outlet 7.
  4858  2.8715e-04  4.3325e-04  7.2188e-03  1.9757e-04  5.6435e-05  9.6012e-05  0:01:31 4142

 Reversed flow on 7 faces (45.1% area) of pressure-outlet 7.
  4859  3.0034e-04  4.2949e-04  7.1009e-03  2.0186e-04  5.5710e-05  9.4368e-05  0:01:13 4141

 Reversed flow on 7 faces (45.1% area) of pressure-outlet 7.
  4860  3.1322e-04  4.1931e-04  6.8851e-03  2.0518e-04  5.4656e-05  9.2002e-05  0:00:59 4140

 Reversed flow on 7 faces (45.1% area) of pressure-outlet 7.
  4861  3.2608e-04  4.0328e-04  6.6909e-03  2.0827e-04  5.3288e-05  8.8966e-05  0:00:47 4139

 Reversed flow on 7 faces (45.1% area) of pressure-outlet 7.
  4862  3.3850e-04  3.8160e-04  6.5045e-03  2.1022e-04  5.1699e-05  8.5305e-05  0:14:25 4138

 Reversed flow on 7 faces (45.1% area) of pressure-outlet 7.

  iter  continuity  x-velocity  y-velocity      energy           k     epsilon     time/iter
  4863  3.4634e-04  3.4445e-04  6.3274e-03  2.0651e-04  4.9962e-05  8.1063e-05  0:11:32 4137

 Reversed flow on 7 faces (45.1% area) of pressure-outlet 7.
  4864  3.6387e-04  2.8111e-04  6.1653e-03  2.0524e-04  4.8110e-05  7.6300e-05  0:09:13 4136

 Reversed flow on 7 faces (45.1% area) of pressure-outlet 7.
  4865  3.8508e-04  2.4647e-04  5.9562e-03  2.1488e-04  4.6120e-05  7.1210e-05  0:07:23 4135

 Reversed flow on 7 faces (45.1% area) of pressure-outlet 7.
  4866  3.9456e-04  2.1027e-04  5.7829e-03  2.1801e-04  4.4099e-05  6.5877e-05  0:05:54 4134

 Reversed flow on 7 faces (45.1% area) of pressure-outlet 7.
  4867  3.9651e-04  1.7710e-04  5.6019e-03  2.1718e-04  4.2068e-05  6.0629e-05  0:04:43 4133

 Reversed flow on 7 faces (45.1% area) of pressure-outlet 7.
  4868  3.9215e-04  1.4933e-04  5.4739e-03  2.1304e-04  4.0007e-05  5.5654e-05  0:03:46 4132

 Reversed flow on 7 faces (45.1% area) of pressure-outlet 7.
  4869  3.8257e-04  1.3107e-04  5.4995e-03  2.0632e-04  3.8001e-05  5.0845e-05  0:03:01 4131

 Reversed flow on 7 faces (45.1% area) of pressure-outlet 7.
  4870  3.6933e-04  1.2728e-04  5.6302e-03  1.9812e-04  3.6287e-05  4.7214e-05  0:02:25 4130

 Reversed flow on 7 faces (45.1% area) of pressure-outlet 7.
  4871  3.5352e-04  1.3809e-04  5.8234e-03  1.8920e-04  3.5241e-05  4.5312e-05  0:01:56 4129

 Reversed flow on 7 faces (45.1% area) of pressure-outlet 7.
  4872  3.3593e-04  1.5860e-04  6.0307e-03  1.7993e-04  3.4776e-05  4.5210e-05  0:01:33 4128

 Reversed flow on 7 faces (45.1% area) of pressure-outlet 7.
  4873  3.1745e-04  1.8366e-04  6.2269e-03  1.7080e-04  3.4777e-05  4.6711e-05  0:01:14 4127

 Reversed flow on 7 faces (45.1% area) of pressure-outlet 7.

  iter  continuity  x-velocity  y-velocity      energy           k     epsilon     time/iter
  4874  2.9918e-04  2.1015e-04  6.4073e-03  1.6252e-04  3.5380e-05  4.9827e-05  0:00:59 4126

 Reversed flow on 7 faces (45.1% area) of pressure-outlet 7.
  4875  2.8230e-04  2.3530e-04  6.5472e-03  1.5577e-04  3.6608e-05  5.3501e-05  0:00:47 4125

 Reversed flow on 7 faces (45.1% area) of pressure-outlet 7.
  4876  2.6800e-04  2.5843e-04  6.6581e-03  1.5161e-04  3.8133e-05  5.7230e-05  0:00:38 4124

 Reversed flow on 7 faces (45.1% area) of pressure-outlet 7.
  4877  2.5779e-04  2.7919e-04  6.7527e-03  1.5007e-04  3.9535e-05  6.1118e-05  0:14:15 4123

 Reversed flow on 7 faces (45.1% area) of pressure-outlet 7.
  4878  2.5294e-04  2.9591e-04  6.8465e-03  1.5081e-04  4.1057e-05  6.5303e-05  0:11:24 4122

 Reversed flow on 7 faces (45.1% area) of pressure-outlet 7.
  4879  2.5319e-04  3.0886e-04  6.9194e-03  1.5376e-04  4.2641e-05  6.9349e-05  0:09:07 4121

 Reversed flow on 7 faces (45.1% area) of pressure-outlet 7.
  4880  2.9243e-04  3.3955e-04  6.8995e-03  1.8856e-04  4.4200e-05  7.3276e-05  0:07:17 4120

 Reversed flow on 7 faces (45.1% area) of pressure-outlet 7.
  4881  3.0972e-04  3.6612e-04  6.9294e-03  2.0340e-04  4.5663e-05  7.7056e-05  0:05:50 4119

 Reversed flow on 7 faces (45.1% area) of pressure-outlet 7.
  4882  3.0831e-04  3.7407e-04  6.8865e-03  2.0254e-04  4.7058e-05  8.0637e-05  0:04:40 4118

 Reversed flow on 7 faces (45.1% area) of pressure-outlet 7.
  4883  3.0540e-04  3.7507e-04  6.7779e-03  1.9968e-04  4.8417e-05  8.3975e-05  0:03:44 4117

 Reversed flow on 7 faces (45.1% area) of pressure-outlet 7.
  4884  3.0522e-04  3.7342e-04  6.6406e-03  1.9757e-04  4.9692e-05  8.7121e-05  0:02:59 4116

 Reversed flow on 7 faces (45.1% area) of pressure-outlet 7.

  iter  continuity  x-velocity  y-velocity      energy           k     epsilon     time/iter
  4885  3.0726e-04  3.7024e-04  6.4958e-03  1.9680e-04  5.0989e-05  8.9976e-05  0:02:23 4115

 Reversed flow on 7 faces (45.1% area) of pressure-outlet 7.
  4886  3.1033e-04  3.6536e-04  6.3326e-03  1.9757e-04  5.2225e-05  9.2405e-05  0:01:54 4114

 Reversed flow on 7 faces (45.1% area) of pressure-outlet 7.
  4887  3.1362e-04  3.5795e-04  6.1469e-03  1.9816e-04  5.3400e-05  9.4256e-05  0:01:32 4113

 Reversed flow on 7 faces (45.1% area) of pressure-outlet 7.
  4888  3.1671e-04  3.4755e-04  5.9248e-03  1.9753e-04  5.4426e-05  9.5447e-05  0:01:13 4112

 Reversed flow on 7 faces (45.1% area) of pressure-outlet 7.
  4889  3.1893e-04  3.3408e-04  5.6739e-03  1.9602e-04  5.5154e-05  9.5813e-05  0:00:59 4111

 Reversed flow on 7 faces (45.1% area) of pressure-outlet 7.
  4890  3.1992e-04  3.1747e-04  5.4084e-03  1.9364e-04  5.5599e-05  9.5243e-05  0:00:47 4110

 Reversed flow on 7 faces (45.1% area) of pressure-outlet 7.
  4891  3.1952e-04  2.9791e-04  5.1441e-03  1.9062e-04  5.5688e-05  9.3631e-05  0:00:37 4109

 Reversed flow on 7 faces (45.1% area) of pressure-outlet 7.
  4892  3.1796e-04  2.7594e-04  4.8913e-03  1.8689e-04  5.5285e-05  9.0875e-05  0:00:30 4108

 Reversed flow on 7 faces (45.1% area) of pressure-outlet 7.
  4893  3.1534e-04  2.5198e-04  4.6630e-03  1.8264e-04  5.4382e-05  8.7057e-05  0:14:05 4107

 Reversed flow on 7 faces (45.1% area) of pressure-outlet 7.
  4894  3.1185e-04  2.2649e-04  4.4705e-03  1.7812e-04  5.3103e-05  8.2439e-05  0:11:16 4106

 Reversed flow on 7 faces (45.1% area) of pressure-outlet 7.
  4895  3.0759e-04  1.9997e-04  4.3274e-03  1.7340e-04  5.1413e-05  7.7330e-05  0:09:01 4105

 Reversed flow on 7 faces (45.1% area) of pressure-outlet 7.

  iter  continuity  x-velocity  y-velocity      energy           k     epsilon     time/iter
  4896  3.0282e-04  1.7336e-04  4.2386e-03  1.6834e-04  4.9360e-05  7.1980e-05  0:07:13 4104

 Reversed flow on 7 faces (45.1% area) of pressure-outlet 7.
  4897  2.9763e-04  1.4826e-04  4.2064e-03  1.6330e-04  4.7093e-05  6.7132e-05  0:05:46 4103

 Reversed flow on 7 faces (45.1% area) of pressure-outlet 7.
  4898  2.9190e-04  1.2717e-04  4.2268e-03  1.5864e-04  4.5204e-05  6.3899e-05  0:04:37 4102

 Reversed flow on 7 faces (45.1% area) of pressure-outlet 7.
  4899  2.8561e-04  1.1363e-04  4.2984e-03  1.5445e-04  4.3771e-05  6.2049e-05  0:03:41 4101

 Reversed flow on 7 faces (45.1% area) of pressure-outlet 7.
  4900  2.7888e-04  1.1135e-04  4.4194e-03  1.5081e-04  4.3006e-05  6.1886e-05  0:02:57 4100

 Reversed flow on 7 faces (45.1% area) of pressure-outlet 7.
  4901  2.7188e-04  1.2144e-04  4.5831e-03  1.4802e-04  4.2967e-05  6.3055e-05  0:02:22 4099

 Reversed flow on 7 faces (45.1% area) of pressure-outlet 7.
  4902  2.6492e-04  1.4147e-04  4.7801e-03  1.4610e-04  4.3294e-05  6.5456e-05  0:01:53 4098

 Reversed flow on 7 faces (45.1% area) of pressure-outlet 7.
  4903  2.5816e-04  1.6772e-04  5.0093e-03  1.4548e-04  4.4031e-05  6.8882e-05  0:01:31 4097

 Reversed flow on 7 faces (45.1% area) of pressure-outlet 7.
  4904  2.5197e-04  1.9725e-04  5.2592e-03  1.4550e-04  4.5230e-05  7.2881e-05  0:01:12 4096

 Reversed flow on 7 faces (45.1% area) of pressure-outlet 7.
  4905  2.4658e-04  2.2819e-04  5.5360e-03  1.4572e-04  4.6809e-05  7.7311e-05  0:00:58 4095

 Reversed flow on 7 faces (45.1% area) of pressure-outlet 7.
  4906  2.4213e-04  2.6016e-04  5.8274e-03  1.4868e-04  4.8622e-05  8.1702e-05  0:00:46 4094

 Reversed flow on 7 faces (45.1% area) of pressure-outlet 7.

  iter  continuity  x-velocity  y-velocity      energy           k     epsilon     time/iter
  4907  2.3955e-04  2.9124e-04  6.1203e-03  1.5268e-04  5.0505e-05  8.5718e-05  0:00:37 4093

 Reversed flow on 7 faces (45.1% area) of pressure-outlet 7.
  4908  2.3896e-04  3.2078e-04  6.4007e-03  1.5747e-04  5.2375e-05  8.9239e-05  0:00:30 4092

 Reversed flow on 7 faces (45.1% area) of pressure-outlet 7.
  4909  2.4041e-04  3.4816e-04  6.6574e-03  1.6277e-04  5.4024e-05  9.2167e-05  0:00:24 4091

 Reversed flow on 7 faces (45.1% area) of pressure-outlet 7.
  4910  2.4388e-04  3.7287e-04  6.8794e-03  1.6871e-04  5.5270e-05  9.4461e-05  0:00:19 4090

 Reversed flow on 7 faces (45.1% area) of pressure-outlet 7.
  4911  2.4924e-04  3.9440e-04  7.0528e-03  1.7510e-04  5.6154e-05  9.6235e-05  0:13:53 4089

 Reversed flow on 7 faces (45.1% area) of pressure-outlet 7.
  4912  2.5661e-04  4.1212e-04  7.1775e-03  1.8157e-04  5.6697e-05  9.7249e-05  0:11:06 4088

 Reversed flow on 7 faces (45.1% area) of pressure-outlet 7.
  4913  2.6619e-04  4.2477e-04  7.2544e-03  1.8791e-04  5.6892e-05  9.7455e-05  0:08:53 4087

 Reversed flow on 7 faces (45.1% area) of pressure-outlet 7.
  4914  2.7766e-04  4.3173e-04  7.2627e-03  1.9364e-04  5.6807e-05  9.6915e-05  0:07:06 4086

 Reversed flow on 7 faces (45.1% area) of pressure-outlet 7.
  4915  2.9036e-04  4.3286e-04  7.1940e-03  1.9870e-04  5.6351e-05  9.5709e-05  0:05:41 4085

 Reversed flow on 7 faces (45.1% area) of pressure-outlet 7.
  4916  3.0355e-04  4.2749e-04  7.0408e-03  2.0272e-04  5.5526e-05  9.3926e-05  0:04:33 4084

 Reversed flow on 7 faces (45.1% area) of pressure-outlet 7.
  4917  3.1649e-04  4.1584e-04  6.8341e-03  2.0596e-04  5.4407e-05  9.1385e-05  0:03:38 4083

 Reversed flow on 7 faces (45.1% area) of pressure-outlet 7.

  iter  continuity  x-velocity  y-velocity      energy           k     epsilon     time/iter
  4918  3.2920e-04  3.9834e-04  6.6433e-03  2.0889e-04  5.2995e-05  8.8206e-05  0:02:54 4082

 Reversed flow on 7 faces (45.1% area) of pressure-outlet 7.
  4919  3.4150e-04  3.7538e-04  6.4576e-03  2.1044e-04  5.1364e-05  8.4414e-05  0:02:19 4081

 Reversed flow on 7 faces (45.1% area) of pressure-outlet 7.
  4920  3.4501e-04  3.1987e-04  6.2900e-03  2.0048e-04  4.9614e-05  8.0030e-05  0:01:52 4080

 Reversed flow on 7 faces (45.1% area) of pressure-outlet 7.
  4921  3.6930e-04  2.7157e-04  6.1079e-03  2.0747e-04  4.7724e-05  7.5155e-05  0:01:29 4079

 Reversed flow on 7 faces (45.1% area) of pressure-outlet 7.
  4922  3.8759e-04  2.3697e-04  5.9084e-03  2.1562e-04  4.5705e-05  6.9978e-05  0:14:47 4078

 Reversed flow on 7 faces (45.1% area) of pressure-outlet 7.
  4923  3.9528e-04  2.0145e-04  5.7347e-03  2.1785e-04  4.3690e-05  6.4631e-05  0:11:49 4077

 Reversed flow on 7 faces (45.1% area) of pressure-outlet 7.
  4924  3.9569e-04  1.6947e-04  5.5468e-03  2.1625e-04  4.1649e-05  5.9444e-05  0:09:27 4076

 Reversed flow on 7 faces (45.1% area) of pressure-outlet 7.
  4925  3.9005e-04  1.4360e-04  5.4663e-03  2.1150e-04  3.9582e-05  5.4507e-05  0:07:34 4075

 Reversed flow on 7 faces (45.1% area) of pressure-outlet 7.
  4926  3.7948e-04  1.2859e-04  5.5244e-03  2.0433e-04  3.7595e-05  4.9915e-05  0:06:03 4074

 Reversed flow on 7 faces (45.1% area) of pressure-outlet 7.
  4927  3.6554e-04  1.2867e-04  5.6772e-03  1.9591e-04  3.6032e-05  4.6612e-05  0:04:50 4073

 Reversed flow on 7 faces (45.1% area) of pressure-outlet 7.
  4928  3.4924e-04  1.4242e-04  5.8767e-03  1.8688e-04  3.5132e-05  4.5205e-05  0:03:52 4072

 Reversed flow on 7 faces (45.1% area) of pressure-outlet 7.

  iter  continuity  x-velocity  y-velocity      energy           k     epsilon     time/iter
  4929  3.3136e-04  1.6445e-04  6.0810e-03  1.7758e-04  3.4779e-05  4.5429e-05  0:03:06 4071

 Reversed flow on 7 faces (45.1% area) of pressure-outlet 7.
  4930  3.1282e-04  1.9009e-04  6.2721e-03  1.6857e-04  3.4901e-05  4.7394e-05  0:02:29 4070

 Reversed flow on 7 faces (45.1% area) of pressure-outlet 7.
  4931  2.9476e-04  2.1641e-04  6.4417e-03  1.6062e-04  3.5679e-05  5.0763e-05  0:01:59 4069

 Reversed flow on 7 faces (45.1% area) of pressure-outlet 7.
  4932  2.7839e-04  2.4100e-04  6.5738e-03  1.5445e-04  3.7033e-05  5.4441e-05  0:01:35 4068

 Reversed flow on 7 faces (45.1% area) of pressure-outlet 7.
  4933  2.6494e-04  2.6376e-04  6.6782e-03  1.5091e-04  3.8505e-05  5.8196e-05  0:01:16 4067

 Reversed flow on 7 faces (45.1% area) of pressure-outlet 7.
  4934  2.5603e-04  2.8351e-04  6.7741e-03  1.5002e-04  3.9930e-05  6.2186e-05  0:01:01 4066

 Reversed flow on 7 faces (45.1% area) of pressure-outlet 7.
  4935  2.5247e-04  2.9930e-04  6.8642e-03  1.5123e-04  4.1469e-05  6.6351e-05  0:00:49 4065

 Reversed flow on 7 faces (45.1% area) of pressure-outlet 7.
  4936  2.5638e-04  3.1067e-04  6.9199e-03  1.5720e-04  4.3093e-05  7.0393e-05  0:00:39 4064

 Reversed flow on 7 faces (45.1% area) of pressure-outlet 7.
  4937  2.9985e-04  3.4834e-04  6.9022e-03  1.9484e-04  4.4632e-05  7.4286e-05  0:00:31 4063

 Reversed flow on 7 faces (45.1% area) of pressure-outlet 7.
  4938  3.1026e-04  3.6920e-04  6.9230e-03  2.0393e-04  4.6061e-05  7.8022e-05  0:00:25 4062

 Reversed flow on 7 faces (45.1% area) of pressure-outlet 7.
  4939  3.0750e-04  3.7473e-04  6.8633e-03  2.0187e-04  4.7446e-05  8.1560e-05  0:00:20 4061

 Reversed flow on 7 faces (45.1% area) of pressure-outlet 7.

  iter  continuity  x-velocity  y-velocity      energy           k     epsilon     time/iter
  4940  3.0510e-04  3.7484e-04  6.7449e-03  1.9917e-04  4.8790e-05  8.4856e-05  0:13:48 4060

 Reversed flow on 7 faces (45.1% area) of pressure-outlet 7.
  4941  3.0556e-04  3.7272e-04  6.6052e-03  1.9707e-04  5.0072e-05  8.7967e-05  0:11:02 4059

 Reversed flow on 7 faces (45.1% area) of pressure-outlet 7.
  4942  3.0789e-04  3.6918e-04  6.4567e-03  1.9697e-04  5.1369e-05  9.0714e-05  0:08:50 4058

 Reversed flow on 7 faces (45.1% area) of pressure-outlet 7.
  4943  3.1112e-04  3.6375e-04  6.2881e-03  1.9774e-04  5.2596e-05  9.3006e-05  0:07:04 4057

 Reversed flow on 7 faces (45.1% area) of pressure-outlet 7.
  4944  3.1434e-04  3.5561e-04  6.0949e-03  1.9811e-04  5.3725e-05  9.4694e-05  0:05:39 4056

 Reversed flow on 7 faces (45.1% area) of pressure-outlet 7.
  4945  3.1730e-04  3.4445e-04  5.8640e-03  1.9721e-04  5.4680e-05  9.5714e-05  0:04:31 4055

 Reversed flow on 7 faces (45.1% area) of pressure-outlet 7.
  4946  3.1938e-04  3.3025e-04  5.6079e-03  1.9547e-04  5.5353e-05  9.5810e-05  0:03:37 4054

 Reversed flow on 7 faces (45.1% area) of pressure-outlet 7.
  4947  3.2000e-04  3.1286e-04  5.3424e-03  1.9293e-04  5.5711e-05  9.5010e-05  0:02:53 4053

 Reversed flow on 7 faces (45.1% area) of pressure-outlet 7.
  4948  3.1931e-04  2.9267e-04  5.0800e-03  1.8974e-04  5.5695e-05  9.3123e-05  0:02:19 4052

 Reversed flow on 7 faces (45.1% area) of pressure-outlet 7.
  4949  3.1744e-04  2.7018e-04  4.8318e-03  1.8586e-04  5.5153e-05  9.0078e-05  0:01:51 4051

 Reversed flow on 7 faces (45.1% area) of pressure-outlet 7.
  4950  3.1459e-04  2.4580e-04  4.6112e-03  1.8152e-04  5.4151e-05  8.6021e-05  0:01:29 4050

 Reversed flow on 7 faces (45.1% area) of pressure-outlet 7.

  iter  continuity  x-velocity  y-velocity      energy           k     epsilon     time/iter
  4951  3.1088e-04  2.2000e-04  4.4295e-03  1.7697e-04  5.2779e-05  8.1275e-05  0:01:11 4049

 Reversed flow on 7 faces (45.1% area) of pressure-outlet 7.
  4952  3.0647e-04  1.9336e-04  4.2997e-03  1.7216e-04  5.0979e-05  7.6028e-05  0:00:57 4048

 Reversed flow on 7 faces (45.1% area) of pressure-outlet 7.
  4953  3.0162e-04  1.6694e-04  4.2255e-03  1.6704e-04  4.8843e-05  7.0675e-05  0:00:45 4047

 Reversed flow on 7 faces (45.1% area) of pressure-outlet 7.
  4954  2.9630e-04  1.4256e-04  4.2063e-03  1.6209e-04  4.6615e-05  6.6213e-05  0:00:36 4046

 Reversed flow on 7 faces (45.1% area) of pressure-outlet 7.
  4955  2.9042e-04  1.2297e-04  4.2391e-03  1.5756e-04  4.4791e-05  6.3320e-05  0:00:29 4045

 Reversed flow on 7 faces (45.1% area) of pressure-outlet 7.
  4956  2.8401e-04  1.1190e-04  4.3232e-03  1.5347e-04  4.3549e-05  6.1835e-05  0:00:23 4044

 Reversed flow on 7 faces (45.1% area) of pressure-outlet 7.
  4957  2.7719e-04  1.1271e-04  4.4555e-03  1.5003e-04  4.2933e-05  6.2036e-05  0:13:47 4043

 Reversed flow on 7 faces (45.1% area) of pressure-outlet 7.
  4958  2.7017e-04  1.2557e-04  4.6281e-03  1.4742e-04  4.3004e-05  6.3515e-05  0:11:02 4042

 Reversed flow on 7 faces (45.1% area) of pressure-outlet 7.
  4959  2.6326e-04  1.4745e-04  4.8341e-03  1.4582e-04  4.3429e-05  6.6217e-05  0:08:49 4041

 Reversed flow on 7 faces (45.1% area) of pressure-outlet 7.
  4960  2.5661e-04  1.7473e-04  5.0689e-03  1.4542e-04  4.4263e-05  6.9824e-05  0:07:03 4040

 Reversed flow on 7 faces (45.1% area) of pressure-outlet 7.
  4961  2.5061e-04  2.0472e-04  5.3252e-03  1.4553e-04  4.5562e-05  7.3929e-05  0:05:38 4039

 Reversed flow on 7 faces (45.1% area) of pressure-outlet 7.

  iter  continuity  x-velocity  y-velocity      energy           k     epsilon     time/iter
  4962  2.4545e-04  2.3592e-04  5.6059e-03  1.4626e-04  4.7223e-05  7.8397e-05  0:04:31 4038

 Reversed flow on 7 faces (45.1% area) of pressure-outlet 7.
  4963  2.4139e-04  2.6776e-04  5.8979e-03  1.4942e-04  4.9071e-05  8.2712e-05  0:03:37 4037

 Reversed flow on 7 faces (45.1% area) of pressure-outlet 7.
  4964  2.3925e-04  2.9856e-04  6.1885e-03  1.5376e-04  5.0958e-05  8.6609e-05  0:02:53 4036

 Reversed flow on 7 faces (45.1% area) of pressure-outlet 7.
  4965  2.3916e-04  3.2763e-04  6.4636e-03  1.5869e-04  5.2824e-05  9.0008e-05  0:02:19 4035

 Reversed flow on 7 faces (45.1% area) of pressure-outlet 7.
  4966  2.4112e-04  3.5440e-04  6.7130e-03  1.6413e-04  5.4335e-05  9.2806e-05  0:01:51 4034

 Reversed flow on 7 faces (45.1% area) of pressure-outlet 7.
  4967  2.4505e-04  3.7837e-04  6.9249e-03  1.7020e-04  5.5496e-05  9.4886e-05  0:01:29 4033

 Reversed flow on 7 faces (45.1% area) of pressure-outlet 7.
  4968  2.5090e-04  3.9902e-04  7.0859e-03  1.7667e-04  5.6286e-05  9.6539e-05  0:01:11 4032

 Reversed flow on 7 faces (45.1% area) of pressure-outlet 7.
  4969  2.5877e-04  4.1571e-04  7.1990e-03  1.8310e-04  5.6778e-05  9.7320e-05  0:00:57 4031

 Reversed flow on 7 faces (45.1% area) of pressure-outlet 7.
  4970  2.6887e-04  4.2688e-04  7.2637e-03  1.8935e-04  5.6903e-05  9.7369e-05  0:00:45 4030

 Reversed flow on 7 faces (45.1% area) of pressure-outlet 7.
  4971  2.8064e-04  4.3255e-04  7.2512e-03  1.9494e-04  5.6751e-05  9.6702e-05  0:00:36 4029

 Reversed flow on 7 faces (45.1% area) of pressure-outlet 7.
[...]

 Reversed flow on 7 faces (45.1% area) of pressure-outlet 7.
  7471  3.1896e-04  4.1469e-04  6.8187e-03  2.0631e-04  5.5522e-05  9.2893e-05  0:03:22 1529

 Reversed flow on 7 faces (45.1% area) of pressure-outlet 7.
  7472  3.3309e-04  3.9673e-04  6.6290e-03  2.0928e-04  5.4220e-05  8.9566e-05  0:02:41 1528

 Reversed flow on 7 faces (45.1% area) of pressure-outlet 7.
  7473  3.4571e-04  3.7337e-04  6.4436e-03  2.1074e-04  5.2642e-05  8.5542e-05  0:02:09 1527

 Reversed flow on 7 faces (45.1% area) of pressure-outlet 7.
  7474  3.4849e-04  3.1332e-04  6.2785e-03  1.9971e-04  5.0890e-05  8.0861e-05  0:01:43 1526

 Reversed flow on 7 faces (45.1% area) of pressure-outlet 7.
  7475  3.7326e-04  2.6875e-04  6.0909e-03  2.0842e-04  4.8954e-05  7.5738e-05  0:01:22 1525

 Reversed flow on 7 faces (45.1% area) of pressure-outlet 7.
  7476  3.9010e-04  2.3408e-04  5.8946e-03  2.1602e-04  4.6933e-05  7.0317e-05  0:01:06 1524

 Reversed flow on 7 faces (45.1% area) of pressure-outlet 7.
  7477  3.9686e-04  1.9877e-04  5.7208e-03  2.1793e-04  4.4814e-05  6.4852e-05  0:00:53 1523

 Reversed flow on 7 faces (45.1% area) of pressure-outlet 7.
  7478  3.9649e-04  1.6718e-04  5.5308e-03  2.1604e-04  4.2658e-05  5.9398e-05  0:00:42 1522

 Reversed flow on 7 faces (45.1% area) of pressure-outlet 7.
  7479  3.9024e-04  1.4198e-04  5.4668e-03  2.1108e-04  4.0425e-05  5.4196e-05  0:00:34 1521

 Reversed flow on 7 faces (45.1% area) of pressure-outlet 7.
  7480  3.7929e-04  1.2805e-04  5.5346e-03  2.0377e-04  3.8365e-05  4.9734e-05  0:00:27 1520

 Reversed flow on 7 faces (45.1% area) of pressure-outlet 7.

  iter  continuity  x-velocity  y-velocity      energy           k     epsilon     time/iter
  7481  3.6505e-04  1.2933e-04  5.6939e-03  1.9528e-04  3.6669e-05  4.6628e-05  0:00:21 1519

 Reversed flow on 7 faces (45.1% area) of pressure-outlet 7.
  7482  3.4850e-04  1.4394e-04  5.8949e-03  1.8621e-04  3.5650e-05  4.5382e-05  0:00:17 1518

 Reversed flow on 7 faces (45.1% area) of pressure-outlet 7.
  7483  3.3042e-04  1.6638e-04  6.0979e-03  1.7690e-04  3.5167e-05  4.5910e-05  0:00:14 1517

 Reversed flow on 7 faces (45.1% area) of pressure-outlet 7.
  7484  3.1178e-04  1.9218e-04  6.2874e-03  1.6793e-04  3.5398e-05  4.8409e-05  0:00:11 1516

 Reversed flow on 7 faces (45.1% area) of pressure-outlet 7.
  7485  2.9365e-04  2.1841e-04  6.4534e-03  1.6007e-04  3.6149e-05  5.1910e-05  0:00:09 1515

 Reversed flow on 7 faces (45.1% area) of pressure-outlet 7.
  7486  2.7732e-04  2.4282e-04  6.5830e-03  1.5410e-04  3.7399e-05  5.5614e-05  0:05:10 1514

 Reversed flow on 7 faces (45.1% area) of pressure-outlet 7.
  7487  2.6404e-04  2.6545e-04  6.6853e-03  1.5075e-04  3.8877e-05  5.9559e-05  0:04:08 1513

 Reversed flow on 7 faces (45.1% area) of pressure-outlet 7.
  7488  2.5546e-04  2.8487e-04  6.7814e-03  1.5004e-04  4.0503e-05  6.3831e-05  0:03:18 1512

 Reversed flow on 7 faces (45.1% area) of pressure-outlet 7.
  7489  2.5232e-04  3.0037e-04  6.8700e-03  1.5143e-04  4.2229e-05  6.8001e-05  0:02:38 1511

 Reversed flow on 7 faces (45.1% area) of pressure-outlet 7.
  7490  2.5829e-04  3.1183e-04  6.9187e-03  1.5919e-04  4.3916e-05  7.2145e-05  0:02:07 1510

 Reversed flow on 7 faces (45.1% area) of pressure-outlet 7.
  7491  3.0055e-04  3.5007e-04  6.9061e-03  1.9561e-04  4.5545e-05  7.6149e-05  0:01:41 1509

 Reversed flow on 7 faces (45.1% area) of pressure-outlet 7.

  iter  continuity  x-velocity  y-velocity      energy           k     epsilon     time/iter
  7492  3.0982e-04  3.6973e-04  6.9203e-03  2.0373e-04  4.7047e-05  7.9957e-05  0:01:21 1508

 Reversed flow on 7 faces (45.1% area) of pressure-outlet 7.
  7493  3.0720e-04  3.7483e-04  6.8555e-03  2.0164e-04  4.8574e-05  8.3541e-05  0:01:05 1507

 Reversed flow on 7 faces (45.1% area) of pressure-outlet 7.
  7494  3.0519e-04  3.7478e-04  6.7349e-03  1.9910e-04  5.0079e-05  8.6948e-05  0:00:52 1506

 Reversed flow on 7 faces (45.1% area) of pressure-outlet 7.
  7495  3.0591e-04  3.7253e-04  6.5946e-03  1.9699e-04  5.1543e-05  9.0058e-05  0:00:41 1505

 Reversed flow on 7 faces (45.1% area) of pressure-outlet 7.
  7496  3.0841e-04  3.6888e-04  6.4444e-03  1.9708e-04  5.2960e-05  9.2807e-05  0:00:33 1504

 Reversed flow on 7 faces (45.1% area) of pressure-outlet 7.
  7497  3.1181e-04  3.6325e-04  6.2736e-03  1.9785e-04  5.4312e-05  9.5062e-05  0:00:26 1503

 Reversed flow on 7 faces (45.1% area) of pressure-outlet 7.
  7498  3.1520e-04  3.5487e-04  6.0774e-03  1.9812e-04  5.5434e-05  9.6577e-05  0:00:21 1502

 Reversed flow on 7 faces (45.1% area) of pressure-outlet 7.
  7499  3.1825e-04  3.4347e-04  5.8443e-03  1.9718e-04  5.6287e-05  9.7388e-05  0:00:17 1501

 Reversed flow on 7 faces (45.1% area) of pressure-outlet 7.
  7500  3.2031e-04  3.2903e-04  5.5868e-03  1.9537e-04  5.6781e-05  9.7228e-05  0:00:14 1500

 Reversed flow on 7 faces (45.1% area) of pressure-outlet 7.
  7501  3.2105e-04  3.1140e-04  5.3216e-03  1.9279e-04  5.6929e-05  9.6078e-05  0:05:11 1499

 Reversed flow on 7 faces (45.1% area) of pressure-outlet 7.
  7502  3.2043e-04  2.9101e-04  5.0601e-03  1.8955e-04  5.6617e-05  9.3804e-05  0:04:08 1498

 Reversed flow on 7 faces (45.1% area) of pressure-outlet 7.

  iter  continuity  x-velocity  y-velocity      energy           k     epsilon     time/iter
  7503  3.1867e-04  2.6835e-04  4.8136e-03  1.8565e-04  5.5874e-05  9.0368e-05  0:03:19 1497

 Reversed flow on 7 faces (45.1% area) of pressure-outlet 7.
  7504  3.1595e-04  2.4385e-04  4.5958e-03  1.8130e-04  5.4640e-05  8.5892e-05  0:02:39 1496

 Reversed flow on 7 faces (45.1% area) of pressure-outlet 7.
  7505  3.1248e-04  2.1795e-04  4.4180e-03  1.7676e-04  5.2985e-05  8.0851e-05  0:02:07 1495

 Reversed flow on 7 faces (45.1% area) of pressure-outlet 7.
  7506  3.0815e-04  1.9129e-04  4.2924e-03  1.7195e-04  5.0853e-05  7.5060e-05  0:01:41 1494

 Reversed flow on 7 faces (45.1% area) of pressure-outlet 7.
  7507  3.0346e-04  1.6495e-04  4.2228e-03  1.6683e-04  4.8369e-05  6.9365e-05  0:01:21 1493

 Reversed flow on 7 faces (45.1% area) of pressure-outlet 7.
  7508  2.9822e-04  1.4084e-04  4.2079e-03  1.6192e-04  4.6077e-05  6.4806e-05  0:01:05 1492

 Reversed flow on 7 faces (45.1% area) of pressure-outlet 7.
  7509  2.9245e-04  1.2177e-04  4.2447e-03  1.5744e-04  4.4130e-05  6.1861e-05  0:00:52 1491

 Reversed flow on 7 faces (45.1% area) of pressure-outlet 7.
  7510  2.8617e-04  1.1154e-04  4.3327e-03  1.5340e-04  4.2893e-05  6.0572e-05  0:00:41 1490

 Reversed flow on 7 faces (45.1% area) of pressure-outlet 7.
  7511  2.7951e-04  1.1334e-04  4.4684e-03  1.5004e-04  4.2252e-05  6.0877e-05  0:05:31 1489

 Reversed flow on 7 faces (45.1% area) of pressure-outlet 7.
  7512  2.7280e-04  1.2704e-04  4.6437e-03  1.4752e-04  4.2206e-05  6.2521e-05  0:04:25 1488

 Reversed flow on 7 faces (45.1% area) of pressure-outlet 7.
  7513  2.6591e-04  1.4946e-04  4.8521e-03  1.4601e-04  4.2614e-05  6.5559e-05  0:03:32 1487

 Reversed flow on 7 faces (45.1% area) of pressure-outlet 7.

  iter  continuity  x-velocity  y-velocity      energy           k     epsilon     time/iter
  7514  2.5936e-04  1.7703e-04  5.0884e-03  1.4567e-04  4.3686e-05  6.9330e-05  0:02:49 1486

 Reversed flow on 7 faces (45.1% area) of pressure-outlet 7.
  7515  2.5346e-04  2.0714e-04  5.3466e-03  1.4580e-04  4.5148e-05  7.3515e-05  0:02:15 1485

 Reversed flow on 7 faces (45.1% area) of pressure-outlet 7.
  7516  2.4840e-04  2.3843e-04  5.6284e-03  1.4671e-04  4.6914e-05  7.8047e-05  0:01:48 1484

 Reversed flow on 7 faces (45.1% area) of pressure-outlet 7.
  7517  2.4454e-04  2.7020e-04  5.9206e-03  1.4994e-04  4.8865e-05  8.2606e-05  0:01:26 1483

 Reversed flow on 7 faces (45.1% area) of pressure-outlet 7.
  7518  2.4266e-04  3.0090e-04  6.2103e-03  1.5436e-04  5.0854e-05  8.6619e-05  0:01:09 1482

 Reversed flow on 7 faces (45.1% area) of pressure-outlet 7.
  7519  2.4303e-04  3.2982e-04  6.4835e-03  1.5935e-04  5.2729e-05  9.0204e-05  0:00:55 1481

 Reversed flow on 7 faces (45.1% area) of pressure-outlet 7.
  7520  2.4546e-04  3.5638e-04  6.7306e-03  1.6485e-04  5.4351e-05  9.3219e-05  0:00:44 1480

 Reversed flow on 7 faces (45.1% area) of pressure-outlet 7.
  7521  2.4993e-04  3.8012e-04  6.9392e-03  1.7097e-04  5.5655e-05  9.5606e-05  0:00:35 1479

 Reversed flow on 7 faces (45.1% area) of pressure-outlet 7.
  7522  2.5632e-04  4.0048e-04  7.0962e-03  1.7749e-04  5.6657e-05  9.7345e-05  0:00:28 1478

 Reversed flow on 7 faces (45.1% area) of pressure-outlet 7.
  7523  2.6432e-04  4.1684e-04  7.2056e-03  1.8391e-04  5.7308e-05  9.8388e-05  0:00:23 1477

 Reversed flow on 7 faces (45.1% area) of pressure-outlet 7.
  7524  2.7396e-04  4.2753e-04  7.2663e-03  1.9008e-04  5.7635e-05  9.8616e-05  0:00:18 1476

 Reversed flow on 7 faces (45.1% area) of pressure-outlet 7.

  iter  continuity  x-velocity  y-velocity      energy           k     epsilon     time/iter
  7525  2.8430e-04  4.3278e-04  7.2473e-03  1.9553e-04  5.7572e-05  9.8169e-05  0:00:14 1475

 Reversed flow on 7 faces (45.1% area) of pressure-outlet 7.
  7526  2.9549e-04  4.3182e-04  7.1568e-03  2.0015e-04  5.7097e-05  9.6951e-05  0:00:12 1474

 Reversed flow on 7 faces (45.1% area) of pressure-outlet 7.
  7527  3.0813e-04  4.2437e-04  6.9686e-03  2.0382e-04  5.6333e-05  9.4916e-05  0:00:09 1473

 Reversed flow on 7 faces (45.1% area) of pressure-outlet 7.
  7528  3.2248e-04  4.1082e-04  6.7703e-03  2.0707e-04  5.5235e-05  9.2156e-05  0:00:07 1472

 Reversed flow on 7 faces (45.1% area) of pressure-outlet 7.
  7529  3.3632e-04  3.9149e-04  6.5828e-03  2.0981e-04  5.3849e-05  8.8640e-05  0:05:00 1471

 Reversed flow on 7 faces (45.1% area) of pressure-outlet 7.
  7530  3.4852e-04  3.6683e-04  6.3984e-03  2.1091e-04  5.2232e-05  8.4458e-05  0:04:00 1470

 Reversed flow on 7 faces (45.1% area) of pressure-outlet 7.
  7531  3.5282e-04  2.9692e-04  6.2405e-03  1.9928e-04  5.0425e-05  7.9628e-05  0:03:12 1469

 Reversed flow on 7 faces (45.1% area) of pressure-outlet 7.
  7532  3.7870e-04  2.6040e-04  6.0386e-03  2.1102e-04  4.8459e-05  7.4422e-05  0:02:33 1468

 Reversed flow on 7 faces (45.1% area) of pressure-outlet 7.
  7533  3.9248e-04  2.2512e-04  5.8516e-03  2.1686e-04  4.6428e-05  6.8962e-05  0:02:03 1467

 Reversed flow on 7 faces (45.1% area) of pressure-outlet 7.
  7534  3.9742e-04  1.9058e-04  5.6773e-03  2.1779e-04  4.4290e-05  6.3500e-05  0:01:38 1466

 Reversed flow on 7 faces (45.1% area) of pressure-outlet 7.
  7535  3.9549e-04  1.6025e-04  5.4979e-03  2.1507e-04  4.2115e-05  5.8108e-05  0:01:18 1465

 Reversed flow on 7 faces (45.1% area) of pressure-outlet 7.

  iter  continuity  x-velocity  y-velocity      energy           k     epsilon     time/iter
  7536  3.8797e-04  1.3729e-04  5.4722e-03  2.0945e-04  3.9879e-05  5.2955e-05  0:01:03 1464

 Reversed flow on 7 faces (45.1% area) of pressure-outlet 7.
  7537  3.7605e-04  1.2692e-04  5.5651e-03  2.0177e-04  3.7900e-05  4.8838e-05  0:00:50 1463

 Reversed flow on 7 faces (45.1% area) of pressure-outlet 7.
  7538  3.6118e-04  1.3186e-04  5.7399e-03  1.9309e-04  3.6345e-05  4.6186e-05  0:00:40 1462

 Reversed flow on 7 faces (45.1% area) of pressure-outlet 7.
  7539  3.4419e-04  1.4892e-04  5.9447e-03  1.8394e-04  3.5484e-05  4.5343e-05  0:00:32 1461

 Reversed flow on 7 faces (45.1% area) of pressure-outlet 7.
  7540  3.2587e-04  1.7251e-04  6.1455e-03  1.7466e-04  3.5154e-05  4.6318e-05  0:00:26 1460

 Reversed flow on 7 faces (45.1% area) of pressure-outlet 7.
  7541  3.0726e-04  1.9870e-04  6.3324e-03  1.6588e-04  3.5526e-05  4.9219e-05  0:00:20 1459

 Reversed flow on 7 faces (45.1% area) of pressure-outlet 7.
  7542  2.8945e-04  2.2463e-04  6.4884e-03  1.5839e-04  3.6422e-05  5.2811e-05  0:00:16 1458

 Reversed flow on 7 faces (45.1% area) of pressure-outlet 7.
  7543  2.7375e-04  2.4840e-04  6.6113e-03  1.5309e-04  3.7717e-05  5.6557e-05  0:00:13 1457

 Reversed flow on 7 faces (45.1% area) of pressure-outlet 7.
  7544  2.6141e-04  2.7061e-04  6.7064e-03  1.5034e-04  3.9263e-05  6.0593e-05  0:00:10 1456

 Reversed flow on 7 faces (45.1% area) of pressure-outlet 7.
  7545  2.5417e-04  2.8899e-04  6.8024e-03  1.5020e-04  4.0904e-05  6.4865e-05  0:00:08 1455

 Reversed flow on 7 faces (45.1% area) of pressure-outlet 7.
  7546  2.5230e-04  3.0357e-04  6.8861e-03  1.5215e-04  4.2642e-05  6.9023e-05  0:04:57 1454

 Reversed flow on 7 faces (45.1% area) of pressure-outlet 7.

  iter  continuity  x-velocity  y-velocity      energy           k     epsilon     time/iter
  7547  2.6744e-04  3.1825e-04  6.9126e-03  1.6745e-04  4.4310e-05  7.3124e-05  0:03:58 1453

 Reversed flow on 7 faces (45.1% area) of pressure-outlet 7.
  7548  3.0352e-04  3.5564e-04  6.9165e-03  1.9819e-04  4.5910e-05  7.7102e-05  0:03:10 1452

 Reversed flow on 7 faces (45.1% area) of pressure-outlet 7.
  7549  3.0909e-04  3.7134e-04  6.9099e-03  2.0320e-04  4.7413e-05  8.0846e-05  0:02:32 1451

 Reversed flow on 7 faces (45.1% area) of pressure-outlet 7.
  7550  3.0647e-04  3.7505e-04  6.8292e-03  2.0092e-04  4.8941e-05  8.4403e-05  0:02:02 1450

 Reversed flow on 7 faces (45.1% area) of pressure-outlet 7.
  7551  3.0523e-04  3.7445e-04  6.7020e-03  1.9879e-04  5.0430e-05  8.7737e-05  0:01:37 1449

 Reversed flow on 7 faces (45.1% area) of pressure-outlet 7.
  7552  3.0652e-04  3.7180e-04  6.5605e-03  1.9669e-04  5.1897e-05  9.0760e-05  0:01:18 1448

 Reversed flow on 7 faces (45.1% area) of pressure-outlet 7.
  7553  3.0919e-04  3.6774e-04  6.4041e-03  1.9730e-04  5.3298e-05  9.3407e-05  0:01:02 1447

 Reversed flow on 7 faces (45.1% area) of pressure-outlet 7.
  7554  3.1269e-04  3.6151e-04  6.2282e-03  1.9805e-04  5.4621e-05  9.5507e-05  0:00:50 1446

 Reversed flow on 7 faces (45.1% area) of pressure-outlet 7.
  7555  3.1606e-04  3.5238e-04  6.0227e-03  1.9797e-04  5.5684e-05  9.6850e-05  0:00:40 1445

 Reversed flow on 7 faces (45.1% area) of pressure-outlet 7.
  7556  3.1888e-04  3.4022e-04  5.7830e-03  1.9683e-04  5.6452e-05  9.7438e-05  0:00:32 1444

 Reversed flow on 7 faces (45.1% area) of pressure-outlet 7.
  7557  3.2063e-04  3.2499e-04  5.5219e-03  1.9479e-04  5.6855e-05  9.7034e-05  0:00:25 1443

 Reversed flow on 7 faces (45.1% area) of pressure-outlet 7.

  iter  continuity  x-velocity  y-velocity      energy           k     epsilon     time/iter
  7558  3.2102e-04  3.0663e-04  5.2566e-03  1.9207e-04  5.6885e-05  9.5599e-05  0:00:20 1442

 Reversed flow on 7 faces (45.1% area) of pressure-outlet 7.
  7559  3.2009e-04  2.8565e-04  4.9978e-03  1.8865e-04  5.6470e-05  9.3062e-05  0:00:16 1441

 Reversed flow on 7 faces (45.1% area) of pressure-outlet 7.
  7560  3.1811e-04  2.6251e-04  4.7574e-03  1.8462e-04  5.5628e-05  8.9340e-05  0:00:13 1440

 Reversed flow on 7 faces (45.1% area) of pressure-outlet 7.
  7561  3.1519e-04  2.3762e-04  4.5482e-03  1.8020e-04  5.4275e-05  8.4711e-05  0:00:10 1439

 Reversed flow on 7 faces (45.1% area) of pressure-outlet 7.
  7562  3.1155e-04  2.1146e-04  4.3830e-03  1.7558e-04  5.2505e-05  7.9490e-05  0:04:56 1438

 Reversed flow on 7 faces (45.1% area) of pressure-outlet 7.
  7563  3.0716e-04  1.8477e-04  4.2702e-03  1.7075e-04  5.0266e-05  7.3578e-05  0:03:57 1437

 Reversed flow on 7 faces (45.1% area) of pressure-outlet 7.
  7564  3.0226e-04  1.5875e-04  4.2144e-03  1.6561e-04  4.7767e-05  6.8049e-05  0:03:09 1436

 Reversed flow on 7 faces (45.1% area) of pressure-outlet 7.
  7565  2.9690e-04  1.3557e-04  4.2124e-03  1.6079e-04  4.5555e-05  6.3958e-05  0:02:31 1435

 Reversed flow on 7 faces (45.1% area) of pressure-outlet 7.
  7566  2.9101e-04  1.1829e-04  4.2619e-03  1.5642e-04  4.3736e-05  6.1327e-05  0:02:01 1434

 Reversed flow on 7 faces (45.1% area) of pressure-outlet 7.
  7567  2.8463e-04  1.1081e-04  4.3622e-03  1.5252e-04  4.2664e-05  6.0493e-05  0:01:37 1433

 Reversed flow on 7 faces (45.1% area) of pressure-outlet 7.
  7568  2.7790e-04  1.1569e-04  4.5084e-03  1.4935e-04  4.2200e-05  6.1123e-05  0:01:17 1432

 Reversed flow on 7 faces (45.1% area) of pressure-outlet 7.

  iter  continuity  x-velocity  y-velocity      energy           k     epsilon     time/iter
  7569  2.7119e-04  1.3188e-04  4.6920e-03  1.4704e-04  4.2266e-05  6.3151e-05  0:01:02 1431

 Reversed flow on 7 faces (45.1% area) of pressure-outlet 7.
  7570  2.6434e-04  1.5587e-04  4.9083e-03  1.4587e-04  4.2819e-05  6.6365e-05  0:00:49 1430

 Reversed flow on 7 faces (45.1% area) of pressure-outlet 7.
  7571  2.5790e-04  1.8427e-04  5.1491e-03  1.4571e-04  4.4012e-05  7.0293e-05  0:00:39 1429

 Reversed flow on 7 faces (45.1% area) of pressure-outlet 7.
  7572  2.5219e-04  2.1472e-04  5.4133e-03  1.4583e-04  4.5559e-05  7.4567e-05  0:00:32 1428

 Reversed flow on 7 faces (45.1% area) of pressure-outlet 7.
  7573  2.4735e-04  2.4628e-04  5.6994e-03  1.4742e-04  4.7401e-05  7.9169e-05  0:00:25 1427

 Reversed flow on 7 faces (45.1% area) of pressure-outlet 7.
  7574  2.4395e-04  2.7785e-04  5.9924e-03  1.5089e-04  4.9368e-05  8.3639e-05  0:00:20 1426

 Reversed flow on 7 faces (45.1% area) of pressure-outlet 7.
  7575  2.4258e-04  3.0819e-04  6.2793e-03  1.5554e-04  5.1325e-05  8.7526e-05  0:00:16 1425

 Reversed flow on 7 faces (45.1% area) of pressure-outlet 7.
  7576  2.4348e-04  3.3659e-04  6.5484e-03  1.6066e-04  5.3130e-05  9.0977e-05  0:00:13 1424

 Reversed flow on 7 faces (45.1% area) of pressure-outlet 7.
  7577  2.4645e-04  3.6251e-04  6.7877e-03  1.6632e-04  5.4689e-05  9.3854e-05  0:00:10 1423

 Reversed flow on 7 faces (45.1% area) of pressure-outlet 7.
  7578  2.5139e-04  3.8549e-04  6.9841e-03  1.7256e-04  5.5932e-05  9.6091e-05  0:04:53 1422

 Reversed flow on 7 faces (45.1% area) of pressure-outlet 7.
  7579  2.5823e-04  4.0493e-04  7.1291e-03  1.7910e-04  5.6850e-05  9.7633e-05  0:03:54 1421

 Reversed flow on 7 faces (45.1% area) of pressure-outlet 7.

  iter  continuity  x-velocity  y-velocity      energy           k     epsilon     time/iter
  7580  2.6662e-04  4.2017e-04  7.2269e-03  1.8550e-04  5.7417e-05  9.8520e-05  0:03:07 1420

 Reversed flow on 7 faces (45.1% area) of pressure-outlet 7.

Interrupting...
  7581  2.7656e-04  4.2939e-04  7.2731e-03  1.9152e-04  5.7664e-05  9.8578e-05  0:02:30 1419
Done.
Writing "| gzip -2cf > SolutionMonitor.gz"...
Writing temporary file C:\\Users\\samlo\\AppData\\Local\\Temp\\flntgz-219562 ...
Done.


Writing to DESKTOP-SJVCFLH:"C:\Users\samlo\OneDrive\Documents\n1-nozzle_files\dp0\FFF\Fluent\FFF-2.cas.h5" in NODE0 mode and compression level 1 ...
  Writing mesh ...
        2410 cells,     1 zone  ...
        4996 faces,     7 zones ...
        2587 nodes,     1 zone  ...
  Done.
Done.

Writing to DESKTOP-SJVCFLH:"C:\Users\samlo\OneDrive\Documents\n1-nozzle_files\dp0\FFF\Fluent\FFF-2-07581.dat.h5" in NODE0 mode and compression level 1 ...
  Writing results.
Done.

Performance Timer for 3081 iterations on 2 compute nodes
  Average wall-clock time per iteration:              0.017 sec
  Global reductions per iteration:                       95 ops
  Global reductions time per iteration:               0.000 sec (0.0%)
  Message count per iteration:                          236 messages
  Data transfer per iteration:                        0.071 MB
  LE solves per iteration:                                3 solves
  LE wall-clock time per iteration:                   0.006 sec (33.2%)
  LE global solves per iteration:                         1 solves
  LE global wall-clock time per iteration:            0.000 sec (0.6%)
  LE global matrix maximum size:                         7
  AMG cycles per iteration:                           3.000 cycles
  Relaxation sweeps per iteration:                       68 sweeps
  Relaxation exchanges per iteration:                     0 exchanges
  LE early protections (stall) per iteration:           0.000 times
  LE early protections (divergence) per iteration:      0.000 times
  Total SVARS touched:                              371

  Total wall-clock time:                             53.397 sec

